LTspice 24.0.9 for Windows
Circuit: * D:\MI-Detection\circuits\Draft1.asc
Start Time: Thu Feb 22 21:22:39 2024
solver = Normal
Maximum thread count: 8
tnom = 27
temp = 27
method = modified trap
WARNING: Less than two connections to node nc_01.  This node is used by r:u1:14.
Direct Newton iteration failed to find .op point.  (Use ".option noopiter" to skip.)
Starting Gmin stepping
Gmin = 10
Gmin = 1.07374
Gmin = 0.115292
Gmin = 0.0123794
Gmin = 0.00132923
vernier = 0.5
vernier = 0.25
vernier = 0.125
vernier = 0.0625
Gmin = 0.00100083
vernier = 0.03125
vernier = 0.015625
vernier = 0.0078125
vernier = 0.00390625
vernier = 0.00195312
Gmin = 0.00100083
vernier = 0.000976562
vernier = 0.000488281
Gmin = 0
Gmin stepping failed

Starting source stepping with srcstepmethod=0
Source Step = 3.0303%
Source Step = 33.3333%
Source Step = 51.5152%
Source Step = 59.0909%
Source Step = 66.6667%
Source Step = 71.7803%
Source Step = 72.9403%
Source Step = 73.0025%
Source Step = 73.0321%
Source Step = 73.0617%
Source Step = 73.0913%
Source Step = 73.1209%
vernier = 0.00146484
Source Step = 73.1549%
Source Step = 73.1993%
Source Step = 73.2437%
Source Step = 73.2881%
Source Step = 73.3324%
vernier = 0.00219727
Source Step = 73.3813%
Source Step = 73.4479%
Source Step = 73.5144%
Source Step = 73.581%
Source Step = 73.6476%
vernier = 0.0032959
Source Step = 73.7175%
Source Step = 73.8174%
Source Step = 73.9173%
Source Step = 74.0171%
Source Step = 74.117%
Source Step = 74.2169%
vernier = 0.00494385
Source Step = 74.3667%
Source Step = 74.5165%
Source Step = 74.6663%
Source Step = 74.8162%
Source Step = 74.966%
vernier = 0.00741577
Source Step = 75.1832%
Source Step = 75.4079%
Source Step = 75.6326%
Source Step = 75.8574%
Source Step = 76.0821%
vernier = 0.0111237
Source Step = 76.3967%
Source Step = 76.7338%
Source Step = 77.0708%
Source Step = 77.4079%
Source Step = 77.745%
vernier = 0.0166855
Source Step = 78.2001%
Source Step = 78.7057%
Source Step = 79.2113%
Source Step = 79.7169%
Source Step = 80.2226%
vernier = 0.0250282
Source Step = 80.8799%
Source Step = 81.6383%
Source Step = 82.3967%
Source Step = 83.1552%
Source Step = 83.9136%
vernier = 0.0375423
Source Step = 84.8616%
Source Step = 85.9993%
Source Step = 87.1369%
Source Step = 88.2746%
Source Step = 89.4122%
vernier = 0.0563135
Source Step = 90.7774%
Source Step = 92.4839%
vernier = 0.0140784
Source Step = 92.5372%
Source Step = 92.5612%
Source Step = 92.5878%
Source Step = 92.6145%
Source Step = 92.6412%
Source Step = 92.6678%
Source Step = 92.6945%
Source Step = 92.7212%
Source Step = 92.7478%
Source Step = 92.7745%
Source Step = 92.8012%
Source Step = 92.8278%
Source Step = 92.8545%
Source Step = 92.8811%
Source Step = 92.9078%
Source Step = 92.9345%
Source Step = 92.9611%
Source Step = 92.9878%
Source Step = 93.0145%
Source Step = 93.0411%
Source Step = 93.0678%
Source Step = 93.0945%
Source Step = 93.1211%
Source Step = 93.1478%
Source Step = 93.1744%
Source Step = 93.2011%
Source Step = 93.2278%
Source Step = 93.2544%
Source Step = 93.2811%
Source Step = 93.3078%
Source Step = 93.3344%
Source Step = 93.3611%
Source Step = 93.3878%
Source Step = 93.4144%
Source Step = 93.4411%
Source Step = 93.4677%
Source Step = 93.4944%
Source Step = 93.5211%
Source Step = 93.5477%
Source Step = 93.5744%
Source Step = 93.6011%
Source Step = 93.6277%
Source Step = 93.6544%
Source Step = 93.6811%
Source Step = 93.7077%
Source Step = 93.7344%
Source Step = 93.761%
Source Step = 93.7877%
Source Step = 93.8144%
Source Step = 93.841%
Source Step = 93.8677%
Source Step = 93.8944%
Source Step = 93.921%
Source Step = 93.9477%
Source Step = 93.9744%
Source Step = 94.001%
Source Step = 94.0277%
Source Step = 94.0543%
Source Step = 94.081%
Source Step = 94.1077%
Source Step = 94.1343%
Source Step = 94.161%
Source Step = 94.1877%
Source Step = 94.2143%
Source Step = 94.241%
Source Step = 94.2677%
Source Step = 94.2943%
Source Step = 94.321%
Source Step = 94.3476%
Source Step = 94.3743%
Source Step = 94.401%
Source Step = 94.4276%
Source Step = 94.4543%
Source Step = 94.481%
Source Step = 94.5076%
Source Step = 94.5343%
Source Step = 94.5609%
Source Step = 94.5876%
Source Step = 94.6143%
Source Step = 94.6409%
Source Step = 94.6676%
Source Step = 94.6943%
Source Step = 94.7209%
Source Step = 94.7476%
Source Step = 94.7743%
Source Step = 94.8009%
Source Step = 94.8276%
Source Step = 94.8542%
Source Step = 94.8809%
Source Step = 94.9076%
Source Step = 94.9342%
Source Step = 94.9609%
Source Step = 94.9876%
Source Step = 95.0142%
Source Step = 95.0409%
Source Step = 95.0676%
Source Step = 95.0942%
Source Step = 95.1209%
Source Step = 95.1475%
Source Step = 95.1742%
Source Step = 95.2009%
Source Step = 95.2275%
Source Step = 95.2542%
Source Step = 95.2809%
Source Step = 95.3075%
Source Step = 95.3342%
Source Step = 95.3609%
Source Step = 95.3875%
Source Step = 95.4142%
Source Step = 95.4408%
Source Step = 95.4675%
Source Step = 95.4942%
Source Step = 95.5208%
Source Step = 95.5475%
Source Step = 95.5742%
Source Step = 95.6008%
Source Step = 95.6275%
Source Step = 95.6542%
Source Step = 95.6808%
Source Step = 95.7075%
Source Step = 95.7341%
Source Step = 95.7608%
Source Step = 95.7875%
Source Step = 95.8141%
Source Step = 95.8408%
Source Step = 95.8675%
Source Step = 95.8941%
Source Step = 95.9208%
Source Step = 95.9475%
Source Step = 95.9741%
Source Step = 96.0008%
Source Step = 96.0274%
Source Step = 96.0541%
Source Step = 96.0808%
Source Step = 96.1074%
Source Step = 96.1341%
Source Step = 96.1608%
Source Step = 96.1874%
Source Step = 96.2141%
Source Step = 96.2408%
Source Step = 96.2674%
Source Step = 96.2941%
Source Step = 96.3207%
Source Step = 96.3474%
Source Step = 96.3741%
Source Step = 96.4007%
Source Step = 96.4274%
Source Step = 96.4541%
Source Step = 96.4807%
Source Step = 96.5074%
Source Step = 96.5341%
Source Step = 96.5607%
Source Step = 96.5874%
Source Step = 96.614%
Source Step = 96.6407%
Source Step = 96.6674%
Source Step = 96.694%
Source Step = 96.7207%
Source Step = 96.7474%
Source Step = 96.774%
Source Step = 96.8007%
Source Step = 96.8274%
Source Step = 96.854%
Source Step = 96.8807%
Source Step = 96.9073%
Source Step = 96.934%
Source Step = 96.9607%
Source Step = 96.9873%
Source Step = 97.014%
Source Step = 97.0407%
Source Step = 97.0673%
Source Step = 97.094%
Source Step = 97.1207%
Source Step = 97.1473%
Source Step = 97.174%
Source Step = 97.2006%
Source Step = 97.2273%
Source Step = 97.254%
Source Step = 97.2806%
Source Step = 97.3073%
Source Step = 97.334%
Source Step = 97.3606%
Source Step = 97.3873%
Source Step = 97.414%
Source Step = 97.4406%
Source Step = 97.4673%
Source Step = 97.4939%
Source Step = 97.5206%
Source Step = 97.5473%
Source Step = 97.5739%
Source Step = 97.6006%
Source Step = 97.6273%
Source Step = 97.6539%
Source Step = 97.6806%
Source Step = 97.7073%
Source Step = 97.7339%
Source Step = 97.7606%
Source Step = 97.7872%
Source Step = 97.8139%
Source Step = 97.8406%
Source Step = 97.8672%
Source Step = 97.8939%
Source Step = 97.9206%
Source Step = 97.9472%
Source Step = 97.9739%
Source Step = 98.0006%
Source Step = 98.0272%
Source Step = 98.0539%
Source Step = 98.0805%
Source Step = 98.1072%
Source Step = 98.1339%
Source Step = 98.1605%
Source Step = 98.1872%
Source Step = 98.2139%
Source Step = 98.2405%
Source Step = 98.2672%
Source Step = 98.2939%
Source Step = 98.3205%
Source Step = 98.3472%
Source Step = 98.3738%
Source Step = 98.4005%
Source Step = 98.4272%
Source Step = 98.4538%
Source Step = 98.4805%
Source Step = 98.5072%
Source Step = 98.5338%
Source Step = 98.5605%
Source Step = 98.5872%
Source Step = 98.6138%
Source Step = 98.6405%
Source Step = 98.6671%
Source Step = 98.6938%
Source Step = 98.7205%
Source Step = 98.7471%
Source Step = 98.7738%
Source Step = 98.8005%
Source Step = 98.8271%
Source Step = 98.8538%
Source Step = 98.8805%
Source Step = 98.9071%
Source Step = 98.9338%
Source Step = 98.9604%
Source Step = 98.9871%
Source Step = 99.0138%
Source Step = 99.0404%
Source Step = 99.0671%
Source Step = 99.0938%
Source Step = 99.1204%
Source Step = 99.1471%
Source Step = 99.1738%
Source Step = 99.2004%
Source Step = 99.2271%
Source Step = 99.2537%
Source Step = 99.2804%
Source Step = 99.3071%
Source Step = 99.3337%
Source Step = 99.3604%
Source Step = 99.3871%
Source Step = 99.4137%
Source Step = 99.4404%
Source Step = 99.4671%
Source Step = 99.4937%
Source Step = 99.5204%
Source Step = 99.547%
Source Step = 99.5737%
Source Step = 99.6004%
Source Step = 99.627%
Source Step = 99.6537%
Source Step = 99.6804%
Source Step = 99.707%
Source Step = 99.7337%
Source Step = 99.7604%
Source Step = 99.787%
Source Step = 99.8137%
Source Step = 99.8403%
Source Step = 99.867%
Source Step = 99.8937%
Source Step = 99.9203%
Source Step = 99.947%
Source Step = 99.9737%
Source Step = 100%
Source Step = 100%
Source Step = 100%
Source Step = 100%
Source Step = 100%
Source Step = 100%
Source Step = 100%
Source Step = 100%
Source Step = 100%
Source Step = 100%
Source Step = 100%
Source Step = 100%
Source Step = 100%
Source Step = 100%
Source Step = 100%
Source Step = 100%
Source Step = 100%
Source Step = 100%
Source Step = 100%
Source Step = 100%
Source Step = 100%
Source Step = 100%
Source Step = 100%
Source Step = 100%
Source Step = 100%
Source Step = 100%
Source Step = 100%
Source Step = 100%
Source Step = 100%
Source Step = 100%
Source Step = 100%
Source Step = 100%
Source Step = 100%
Source Step = 100%
Source Step = 100%
Source Step = 100%
Source Step = 100%
Source Step = 100%
Source Step = 100%
Source Step = 100%
Source Step = 100%
Source Step = 100%
Source Step = 100%
Source Step = 100%
Source Step = 100%
Source Step = 100%
Source Step = 100%
Source Step = 100%
Source Step = 100%
Source Step = 100%
Source Step = 100%
Source Step = 100%
Source Step = 100%
Source Step = 100%
Source stepping succeeded in finding the operating point.

Changing Tseed to 1e-08
Changing Tseed to 1e-10
Changing Tseed to 1e-07
Heightened Def Con from 1e-07 +++++++++++++++++++++++to 1.03125e-07
Heightened Def Con from 1.03125e-07 ++++++++++++++++++++to 1.07125e-07
Heightened Def Con from 1.07125e-07 ++++++++++++++to 1.11125e-07
Heightened Def Con from 1.11125e-07 ++++++++++++++++++++++++to 1.19125e-07
Heightened Def Con from 1.19125e-07 ++++++++++++++++to 1.2025e-07
Heightened Def Con from 1.2025e-07 ++++++++++++++++to 1.2325e-07
Heightened Def Con from 1.2325e-07 ++++++++++++++++to 1.2525e-07
Heightened Def Con from 1.2525e-07 ++++++++++++++++to 1.2825e-07
Heightened Def Con from 1.2825e-07 ++++++++++++++++to 1.3025e-07
Heightened Def Con from 1.3025e-07 ++++++++++++++++to 1.3325e-07
Heightened Def Con from 1.3325e-07 ++++++++++++++++to 1.3625e-07
Heightened Def Con from 1.3625e-07 ++++++++++++++++to 1.3925e-07
Heightened Def Con from 1.3925e-07 ++++++++++++++++to 1.4225e-07
Heightened Def Con from 1.4225e-07 ++++++++++++++++to 1.44375e-07
Heightened Def Con from 1.44375e-07 ++++++++++++++++to 1.465e-07
Heightened Def Con from 1.465e-07 ++++++++++++++++to 1.48625e-07
Heightened Def Con from 1.48625e-07 +++++++++++++++to 1.4975e-07
Heightened Def Con from 1.4975e-07 +++++++++++++++to 1.5275e-07
Heightened Def Con from 1.5275e-07 +++++++++++++++to 1.5575e-07
Heightened Def Con from 1.5575e-07 +++++++++++++++to 1.5875e-07
Heightened Def Con from 1.5875e-07 +++++++++++++++to 1.6175e-07
Heightened Def Con from 1.6175e-07 +++++++++++++++to 1.6475e-07
Heightened Def Con from 1.6475e-07 +++++++++++++++to 1.6675e-07
Heightened Def Con from 1.6675e-07 +++++++++++++++to 1.6875e-07
Heightened Def Con from 1.6875e-07 +++++++++++++++to 1.7075e-07
Heightened Def Con from 1.7075e-07 +++++++++++++++to 1.72875e-07
Heightened Def Con from 1.72875e-07 ++++++++++++++to 1.74e-07
Heightened Def Con from 1.74e-07 ++++++++++++++to 1.76e-07
Heightened Def Con from 1.76e-07 ++++++++++++++to 1.78e-07
Heightened Def Con from 1.78e-07 ++++++++++++++to 1.79e-07
Heightened Def Con from 1.79e-07 ++++++++++++++to 1.8e-07
Heightened Def Con from 1.8e-07 ++++++++++++++to 1.81e-07
Heightened Def Con from 1.81e-07 ++++++++++++++to 1.82e-07
Heightened Def Con from 1.82e-07 ++++++++++++++to 1.83e-07
Heightened Def Con from 1.83e-07 ++++++++++++++to 1.84e-07
Heightened Def Con from 1.84e-07 ++++++++++++++to 1.85e-07
Heightened Def Con from 1.85e-07 ++++++++++++++to 1.86e-07
Heightened Def Con from 1.86e-07 ++++++++++++++to 1.87e-07
Heightened Def Con from 1.87e-07 ++++++++++++++to 1.88e-07
Heightened Def Con from 1.88e-07 ++++++++++++++to 1.89e-07
Heightened Def Con from 1.89e-07 ++++++++++++++to 1.9e-07
Heightened Def Con from 1.9e-07 ++++++++++++++to 1.91e-07
Heightened Def Con from 1.91e-07 ++++++++++++++to 1.92e-07
Heightened Def Con from 1.92e-07 ++++++++++++++to 1.93e-07
Heightened Def Con from 1.93e-07 ++++++++++++++to 1.95e-07
Heightened Def Con from 1.95e-07 ++++++++++++++to 1.97e-07
Heightened Def Con from 1.97e-07 +++++++++++++to 1.98e-07
Heightened Def Con from 1.98e-07 +++++++++++++to 2e-07
Heightened Def Con from 2e-07 +++++++++++++to 2.02e-07
Heightened Def Con from 2.02e-07 +++++++++++++to 2.04e-07
Heightened Def Con from 2.04e-07 +++++++++++++to 2.06e-07
Heightened Def Con from 2.06e-07 +++++++++++++to 2.08e-07
Heightened Def Con from 2.08e-07 +++++++++++++to 2.1e-07
Heightened Def Con from 2.1e-07 +++++++++++++to 2.12e-07
Heightened Def Con from 2.12e-07 +++++++++++++to 2.14e-07
Heightened Def Con from 2.14e-07 ++++++++++++++to 2.15125e-07
Heightened Def Con from 2.15125e-07 +++++++++++++to 2.16125e-07
Heightened Def Con from 2.16125e-07 +++++++++++++to 2.18125e-07
Heightened Def Con from 2.18125e-07 ++++++++++++to 2.19125e-07
Heightened Def Con from 2.19125e-07 ++++++++++++++++++++++++to 2.2425e-07
Heightened Def Con from 2.2425e-07 +++++++++++++++++to 2.26375e-07
Heightened Def Con from 2.26375e-07 ++++++++++++++++to 2.29375e-07
Heightened Def Con from 2.29375e-07 ++++++++++++++++to 2.32375e-07
Heightened Def Con from 2.32375e-07 ++++++++++++++++to 2.35375e-07
Heightened Def Con from 2.35375e-07 ++++++++++++++++to 2.375e-07
Heightened Def Con from 2.375e-07 +++++++++++++++to 2.38625e-07
Heightened Def Con from 2.38625e-07 +++++++++++++++to 2.40625e-07
Heightened Def Con from 2.40625e-07 +++++++++++++++to 2.42625e-07
Heightened Def Con from 2.42625e-07 +++++++++++++++to 2.44625e-07
Heightened Def Con from 2.44625e-07 +++++++++++++++to 2.46625e-07
Heightened Def Con from 2.46625e-07 +++++++++++++++to 2.47625e-07
Heightened Def Con from 2.47625e-07 +++++++++++++++to 2.48625e-07
Heightened Def Con from 2.48625e-07 +++++++++++++++to 2.49625e-07
Heightened Def Con from 2.49625e-07 +++++++++++++++to 2.50625e-07
Heightened Def Con from 2.50625e-07 +++++++++++++++to 2.51625e-07
Heightened Def Con from 2.51625e-07 +++++++++++++++to 2.52625e-07
Heightened Def Con from 2.52625e-07 +++++++++++++++to 2.53625e-07
Heightened Def Con from 2.53625e-07 +++++++++++++++to 2.54625e-07
Heightened Def Con from 2.54625e-07 +++++++++++++++to 2.55625e-07
Heightened Def Con from 2.55625e-07 +++++++++++++++to 2.56625e-07
Heightened Def Con from 2.56625e-07 +++++++++++++++to 2.57625e-07
Heightened Def Con from 2.57625e-07 +++++++++++++++to 2.58625e-07
Heightened Def Con from 2.58625e-07 +++++++++++++++to 2.59625e-07
Heightened Def Con from 2.59625e-07 +++++++++++++++to 2.60625e-07
Heightened Def Con from 2.60625e-07 ++++++++++++++to 2.61625e-07
Heightened Def Con from 2.61625e-07 ++++++++++++++to 2.62625e-07
Heightened Def Con from 2.62625e-07 ++++++++++++++to 2.63625e-07
Heightened Def Con from 2.63625e-07 ++++++++++++++to 2.64625e-07
Heightened Def Con from 2.64625e-07 ++++++++++++++to 2.65625e-07
Heightened Def Con from 2.65625e-07 ++++++++++++++to 2.67625e-07
Heightened Def Con from 2.67625e-07 ++++++++++++++to 2.69625e-07
Heightened Def Con from 2.69625e-07 ++++++++++++++to 2.71625e-07
Heightened Def Con from 2.71625e-07 ++++++++++++++to 2.73625e-07
Heightened Def Con from 2.73625e-07 ++++++++++++++to 2.75625e-07
Heightened Def Con from 2.75625e-07 ++++++++++++++to 2.77625e-07
Heightened Def Con from 2.77625e-07 ++++++++++++++to 2.79625e-07
Heightened Def Con from 2.79625e-07 ++++++++++++++to 2.81625e-07
Heightened Def Con from 2.81625e-07 ++++++++++++++to 2.83625e-07
Heightened Def Con from 2.83625e-07 +++++++++++++to 2.84625e-07
Heightened Def Con from 2.84625e-07 +++++++++++++to 2.86625e-07
Heightened Def Con from 2.86625e-07 +++++++++++++to 2.88625e-07
Heightened Def Con from 2.88625e-07 +++++++++++++to 2.90625e-07
Heightened Def Con from 2.90625e-07 +++++++++++++to 2.92625e-07
Heightened Def Con from 2.92625e-07 +++++++++++++to 2.94625e-07
Heightened Def Con from 2.94625e-07 +++++++++++++to 2.96625e-07
Heightened Def Con from 2.96625e-07 +++++++++++++to 2.98625e-07
Heightened Def Con from 2.98625e-07 +++++++++++++to 3.00625e-07
Heightened Def Con from 3.00625e-07 ++++++++++++++++++++++++to 3.07625e-07
Heightened Def Con from 3.07625e-07 ++++++++++++++++to 3.08875e-07
Heightened Def Con from 3.08875e-07 ++++++++++++++++to 3.10875e-07
Heightened Def Con from 3.10875e-07 ++++++++++++++++to 3.12875e-07
Heightened Def Con from 3.12875e-07 ++++++++++++++++to 3.14875e-07
Heightened Def Con from 3.14875e-07 ++++++++++++++++to 3.16875e-07
Heightened Def Con from 3.16875e-07 ++++++++++++++++to 3.18875e-07
Heightened Def Con from 3.18875e-07 +++++++++++++++++to 3.22e-07
Heightened Def Con from 3.22e-07 +++++++++++++++to 3.23125e-07
Heightened Def Con from 3.23125e-07 +++++++++++++++to 3.24125e-07
Heightened Def Con from 3.24125e-07 +++++++++++++++to 3.25125e-07
Heightened Def Con from 3.25125e-07 +++++++++++++++to 3.26125e-07
Heightened Def Con from 3.26125e-07 +++++++++++++++to 3.27125e-07
Heightened Def Con from 3.27125e-07 +++++++++++++++to 3.28125e-07
Heightened Def Con from 3.28125e-07 +++++++++++++++to 3.29125e-07
Heightened Def Con from 3.29125e-07 +++++++++++++++to 3.30125e-07
Heightened Def Con from 3.30125e-07 +++++++++++++++to 3.31125e-07
Heightened Def Con from 3.31125e-07 +++++++++++++++to 3.33125e-07
Heightened Def Con from 3.33125e-07 +++++++++++++++to 3.34125e-07
Heightened Def Con from 3.34125e-07 +++++++++++++++to 3.36125e-07
Heightened Def Con from 3.36125e-07 +++++++++++++++to 3.38125e-07
Heightened Def Con from 3.38125e-07 +++++++++++++++to 3.40125e-07
Heightened Def Con from 3.40125e-07 +++++++++++++++to 3.42125e-07
Heightened Def Con from 3.42125e-07 ++++++++++++++to 3.43125e-07
Heightened Def Con from 3.43125e-07 ++++++++++++++to 3.45125e-07
Heightened Def Con from 3.45125e-07 ++++++++++++++to 3.47125e-07
Heightened Def Con from 3.47125e-07 ++++++++++++++to 3.49125e-07
Heightened Def Con from 3.49125e-07 ++++++++++++++to 3.51125e-07
Heightened Def Con from 3.51125e-07 ++++++++++++++to 3.53125e-07
Heightened Def Con from 3.53125e-07 ++++++++++++++to 3.55125e-07
Heightened Def Con from 3.55125e-07 ++++++++++++++to 3.57125e-07
Heightened Def Con from 3.57125e-07 ++++++++++++++to 3.59125e-07
Heightened Def Con from 3.59125e-07 ++++++++++++++to 3.61125e-07
Heightened Def Con from 3.61125e-07 +++++++++++++to 3.62125e-07
Heightened Def Con from 3.62125e-07 +++++++++++++to 3.64125e-07
Heightened Def Con from 3.64125e-07 +++++++++++++to 3.66125e-07
Heightened Def Con from 3.66125e-07 +++++++++++++to 3.68125e-07
Heightened Def Con from 3.68125e-07 +++++++++++++to 3.70125e-07
Heightened Def Con from 3.70125e-07 +++++++++++++to 3.72125e-07
Heightened Def Con from 3.72125e-07 ++++++++++++++++++++++++to 3.79125e-07
Heightened Def Con from 3.79125e-07 +++++++++++++++++to 3.80375e-07
Heightened Def Con from 3.80375e-07 ++++++++++++++++to 3.82375e-07
Heightened Def Con from 3.82375e-07 ++++++++++++++++to 3.85375e-07
Heightened Def Con from 3.85375e-07 ++++++++++++++++to 3.88375e-07
Heightened Def Con from 3.88375e-07 +++++++++++++++to 3.89391e-07
Heightened Def Con from 3.89391e-07 +++++++++++++++to 3.92391e-07
Heightened Def Con from 3.92391e-07 +++++++++++++++to 3.95391e-07
Heightened Def Con from 3.95391e-07 +++++++++++++++to 3.98391e-07
Heightened Def Con from 3.98391e-07 +++++++++++++++to 4.01391e-07
Heightened Def Con from 4.01391e-07 +++++++++++++++to 4.04391e-07
Heightened Def Con from 4.04391e-07 +++++++++++++++to 4.07391e-07
Heightened Def Con from 4.07391e-07 +++++++++++++++to 4.10391e-07
Heightened Def Con from 4.10391e-07 +++++++++++++++to 4.12516e-07
Heightened Def Con from 4.12516e-07 ++++++++++++++to 4.13641e-07
Heightened Def Con from 4.13641e-07 ++++++++++++++to 4.16641e-07
Heightened Def Con from 4.16641e-07 ++++++++++++++to 4.19641e-07
Heightened Def Con from 4.19641e-07 ++++++++++++++to 4.21641e-07
Heightened Def Con from 4.21641e-07 ++++++++++++++to 4.23641e-07
Heightened Def Con from 4.23641e-07 ++++++++++++++to 4.25641e-07
Heightened Def Con from 4.25641e-07 ++++++++++++++to 4.27641e-07
Heightened Def Con from 4.27641e-07 +++++++++++++to 4.28641e-07
Heightened Def Con from 4.28641e-07 +++++++++++++to 4.30641e-07
Heightened Def Con from 4.30641e-07 +++++++++++++to 4.32641e-07
Heightened Def Con from 4.32641e-07 +++++++++++++to 4.34641e-07
Heightened Def Con from 4.34641e-07 +++++++++++++to 4.37641e-07
Heightened Def Con from 4.37641e-07 +++++++++++++to 4.40641e-07
Heightened Def Con from 4.40641e-07 ++++++++++++++++++++++++to 4.47641e-07
Heightened Def Con from 4.47641e-07 ++++++++++++++++to 4.48891e-07
Heightened Def Con from 4.48891e-07 ++++++++++++++++to 4.50891e-07
Heightened Def Con from 4.50891e-07 ++++++++++++++++to 4.53016e-07
Heightened Def Con from 4.53016e-07 +++++++++++++++to 4.54141e-07
Heightened Def Con from 4.54141e-07 +++++++++++++++to 4.56141e-07
Heightened Def Con from 4.56141e-07 +++++++++++++++to 4.58141e-07
Heightened Def Con from 4.58141e-07 +++++++++++++++to 4.60141e-07
Heightened Def Con from 4.60141e-07 +++++++++++++++to 4.62141e-07
Heightened Def Con from 4.62141e-07 +++++++++++++++to 4.65141e-07
Heightened Def Con from 4.65141e-07 +++++++++++++++to 4.68141e-07
Heightened Def Con from 4.68141e-07 +++++++++++++++to 4.71141e-07
Heightened Def Con from 4.71141e-07 +++++++++++++++to 4.74141e-07
Heightened Def Con from 4.74141e-07 ++++++++++++++to 4.75266e-07
Heightened Def Con from 4.75266e-07 ++++++++++++++to 4.78266e-07
Heightened Def Con from 4.78266e-07 ++++++++++++++to 4.81266e-07
Heightened Def Con from 4.81266e-07 ++++++++++++++to 4.84266e-07
Heightened Def Con from 4.84266e-07 ++++++++++++++to 4.87266e-07
Heightened Def Con from 4.87266e-07 ++++++++++++++to 4.90266e-07
Heightened Def Con from 4.90266e-07 ++++++++++++++to 4.92391e-07
Heightened Def Con from 4.92391e-07 +++++++++++++++to 4.95516e-07
Heightened Def Con from 4.95516e-07 ++++++++++++++to 4.97641e-07
Heightened Def Con from 4.97641e-07 +++++++++++++to 4.97766e-07
Heightened Def Con from 4.97766e-07 +++++++++++++to 4.98891e-07
Heightened Def Con from 4.98891e-07 +++++++++++++to 5.01891e-07
Heightened Def Con from 5.01891e-07 +++++++++++++to 5.04891e-07
Heightened Def Con from 5.04891e-07 +++++++++++++++++++++++to 5.09016e-07
Heightened Def Con from 5.09016e-07 ++++++++++++++++++++to 5.14016e-07
Heightened Def Con from 5.14016e-07 +++++++++++++++to 5.15141e-07
Heightened Def Con from 5.15141e-07 +++++++++++++to 5.18141e-07
Heightened Def Con from 5.18141e-07 ++++++++++++++++++++++++to 5.24141e-07
Heightened Def Con from 5.24141e-07 +++++++++++++++++to 5.26266e-07
Heightened Def Con from 5.26266e-07 ++++++++++++++++to 5.28391e-07
Heightened Def Con from 5.28391e-07 +++++++++++++++to 5.29516e-07
Heightened Def Con from 5.29516e-07 +++++++++++++++to 5.32516e-07
Heightened Def Con from 5.32516e-07 +++++++++++++++to 5.35516e-07
Heightened Def Con from 5.35516e-07 +++++++++++++++to 5.37516e-07
Heightened Def Con from 5.37516e-07 +++++++++++++++to 5.39516e-07
Heightened Def Con from 5.39516e-07 +++++++++++++++to 5.41516e-07
Heightened Def Con from 5.41516e-07 +++++++++++++++to 5.43516e-07
Heightened Def Con from 5.43516e-07 +++++++++++++++to 5.45516e-07
Heightened Def Con from 5.45516e-07 +++++++++++++++to 5.47641e-07
Heightened Def Con from 5.47641e-07 ++++++++++++++to 5.48766e-07
Heightened Def Con from 5.48766e-07 ++++++++++++++to 5.50766e-07
Heightened Def Con from 5.50766e-07 ++++++++++++++to 5.52766e-07
Heightened Def Con from 5.52766e-07 ++++++++++++++to 5.54766e-07
Heightened Def Con from 5.54766e-07 ++++++++++++++to 5.56766e-07
Heightened Def Con from 5.56766e-07 ++++++++++++++to 5.58766e-07
Heightened Def Con from 5.58766e-07 ++++++++++++++to 5.60766e-07
Heightened Def Con from 5.60766e-07 ++++++++++++++to 5.62766e-07
Heightened Def Con from 5.62766e-07 +++++++++++++++to 5.65891e-07
Heightened Def Con from 5.65891e-07 +++++++++++++to 5.66891e-07
Heightened Def Con from 5.66891e-07 +++++++++++++to 5.69891e-07
Heightened Def Con from 5.69891e-07 +++++++++++++to 5.72891e-07
Heightened Def Con from 5.72891e-07 +++++++++++++to 5.75891e-07
Heightened Def Con from 5.75891e-07 +++++++++++++to 5.78891e-07
Heightened Def Con from 5.78891e-07 +++++++++++++to 5.81016e-07
Heightened Def Con from 5.81016e-07 ++++++++++++++++++++++++to 5.87016e-07
Heightened Def Con from 5.87016e-07 +++++++++++++++to 5.88266e-07
Heightened Def Con from 5.88266e-07 +++++++++++++++to 5.90266e-07
Heightened Def Con from 5.90266e-07 +++++++++++++++to 5.92266e-07
Heightened Def Con from 5.92266e-07 +++++++++++++++to 5.94266e-07
Heightened Def Con from 5.94266e-07 +++++++++++++++to 5.96266e-07
Heightened Def Con from 5.96266e-07 +++++++++++++++to 5.98266e-07
Heightened Def Con from 5.98266e-07 +++++++++++++++to 6.00266e-07
Heightened Def Con from 6.00266e-07 +++++++++++++++to 6.02266e-07
Heightened Def Con from 6.02266e-07 +++++++++++++++to 6.04266e-07
Heightened Def Con from 6.04266e-07 ++++++++++++++to 6.05266e-07
Heightened Def Con from 6.05266e-07 ++++++++++++++to 6.07266e-07
Heightened Def Con from 6.07266e-07 ++++++++++++++to 6.09266e-07
Heightened Def Con from 6.09266e-07 ++++++++++++++to 6.11266e-07
Heightened Def Con from 6.11266e-07 ++++++++++++++to 6.13266e-07
Heightened Def Con from 6.13266e-07 ++++++++++++++to 6.15266e-07
Heightened Def Con from 6.15266e-07 ++++++++++++++to 6.17266e-07
Heightened Def Con from 6.17266e-07 ++++++++++++++to 6.19266e-07
Heightened Def Con from 6.19266e-07 ++++++++++++++to 6.21281e-07
Heightened Def Con from 6.21281e-07 +++++++++++++to 6.22281e-07
Heightened Def Con from 6.22281e-07 +++++++++++++to 6.24281e-07
Heightened Def Con from 6.24281e-07 +++++++++++++to 6.26281e-07
Heightened Def Con from 6.26281e-07 +++++++++++++to 6.26406e-07
Heightened Def Con from 6.26406e-07 +++++++++++++to 6.29406e-07
Heightened Def Con from 6.29406e-07 +++++++++++++++++++++++to 6.30656e-07
Heightened Def Con from 6.30656e-07 +++++++++++++++++++to 6.32031e-07
Heightened Def Con from 6.32031e-07 ++++++++++++++++++++++++to 6.40031e-07
Heightened Def Con from 6.40031e-07 ++++++++++++++++to 6.42156e-07
Heightened Def Con from 6.42156e-07 +++++++++++++++to 6.43281e-07
Heightened Def Con from 6.43281e-07 +++++++++++++++to 6.46281e-07
Heightened Def Con from 6.46281e-07 +++++++++++++++to 6.48281e-07
Heightened Def Con from 6.48281e-07 +++++++++++++++to 6.50281e-07
Heightened Def Con from 6.50281e-07 +++++++++++++++to 6.52281e-07
Heightened Def Con from 6.52281e-07 +++++++++++++++to 6.54281e-07
Heightened Def Con from 6.54281e-07 +++++++++++++++to 6.56281e-07
Heightened Def Con from 6.56281e-07 +++++++++++++++to 6.58281e-07
Heightened Def Con from 6.58281e-07 +++++++++++++++to 6.60406e-07
Heightened Def Con from 6.60406e-07 ++++++++++++++to 6.61531e-07
Heightened Def Con from 6.61531e-07 ++++++++++++++to 6.63531e-07
Heightened Def Con from 6.63531e-07 ++++++++++++++to 6.65531e-07
Heightened Def Con from 6.65531e-07 ++++++++++++++to 6.67531e-07
Heightened Def Con from 6.67531e-07 ++++++++++++++to 6.69531e-07
Heightened Def Con from 6.69531e-07 ++++++++++++++to 6.71531e-07
Heightened Def Con from 6.71531e-07 ++++++++++++++to 6.73531e-07
Heightened Def Con from 6.73531e-07 ++++++++++++++to 6.75531e-07
Heightened Def Con from 6.75531e-07 ++++++++++++++++++++++++to 6.83531e-07
Heightened Def Con from 6.83531e-07 ++++++++++++++++to 6.85656e-07
Heightened Def Con from 6.85656e-07 ++++++++++++++++to 6.87781e-07
Heightened Def Con from 6.87781e-07 +++++++++++++++to 6.88906e-07
Heightened Def Con from 6.88906e-07 +++++++++++++++to 6.91906e-07
Heightened Def Con from 6.91906e-07 +++++++++++++++to 6.94906e-07
Heightened Def Con from 6.94906e-07 +++++++++++++++to 6.96906e-07
Heightened Def Con from 6.96906e-07 +++++++++++++++to 6.98906e-07
Heightened Def Con from 6.98906e-07 +++++++++++++++to 7.00906e-07
Heightened Def Con from 7.00906e-07 ++++++++++++++++to 7.04031e-07
Heightened Def Con from 7.04031e-07 +++++++++++++++to 7.06156e-07
Heightened Def Con from 7.06156e-07 ++++++++++++++to 7.07281e-07
Heightened Def Con from 7.07281e-07 ++++++++++++++to 7.09281e-07
Heightened Def Con from 7.09281e-07 ++++++++++++++to 7.11281e-07
Heightened Def Con from 7.11281e-07 ++++++++++++++to 7.13281e-07
Heightened Def Con from 7.13281e-07 ++++++++++++++to 7.15281e-07
Heightened Def Con from 7.15281e-07 ++++++++++++++to 7.17281e-07
Heightened Def Con from 7.17281e-07 ++++++++++++++to 7.19281e-07
Heightened Def Con from 7.19281e-07 ++++++++++++++to 7.21406e-07
Heightened Def Con from 7.21406e-07 ++++++++++++++++++++++++to 7.29406e-07
Heightened Def Con from 7.29406e-07 ++++++++++++++++++++++++to 7.35531e-07
Heightened Def Con from 7.35531e-07 +++++++++++++++++to 7.36781e-07
Heightened Def Con from 7.36781e-07 ++++++++++++++++to 7.37906e-07
Heightened Def Con from 7.37906e-07 ++++++++++++++++to 7.39906e-07
Heightened Def Con from 7.39906e-07 ++++++++++++++++to 7.42906e-07
Heightened Def Con from 7.42906e-07 ++++++++++++++++to 7.45906e-07
Heightened Def Con from 7.45906e-07 ++++++++++++++++to 7.48906e-07
Heightened Def Con from 7.48906e-07 +++++++++++++++++to 7.52031e-07
Heightened Def Con from 7.52031e-07 ++++++++++++++++to 7.54156e-07
Heightened Def Con from 7.54156e-07 +++++++++++++++to 7.55281e-07
Heightened Def Con from 7.55281e-07 +++++++++++++++to 7.58281e-07
Heightened Def Con from 7.58281e-07 +++++++++++++++to 7.61281e-07
Heightened Def Con from 7.61281e-07 +++++++++++++++to 7.64281e-07
Heightened Def Con from 7.64281e-07 +++++++++++++++to 7.67281e-07
Heightened Def Con from 7.67281e-07 +++++++++++++++to 7.70281e-07
Heightened Def Con from 7.70281e-07 +++++++++++++++to 7.73281e-07
Heightened Def Con from 7.73281e-07 +++++++++++++++to 7.75281e-07
Heightened Def Con from 7.75281e-07 +++++++++++++++to 7.77281e-07
Heightened Def Con from 7.77281e-07 +++++++++++++++to 7.79281e-07
Heightened Def Con from 7.79281e-07 +++++++++++++++to 7.81281e-07
Heightened Def Con from 7.81281e-07 +++++++++++++++to 7.83281e-07
Heightened Def Con from 7.83281e-07 +++++++++++++++to 7.85281e-07
Heightened Def Con from 7.85281e-07 +++++++++++++++to 7.87281e-07
Heightened Def Con from 7.87281e-07 +++++++++++++++to 7.88281e-07
Heightened Def Con from 7.88281e-07 +++++++++++++++to 7.89281e-07
Heightened Def Con from 7.89281e-07 +++++++++++++++to 7.90281e-07
Heightened Def Con from 7.90281e-07 +++++++++++++++to 7.91281e-07
Heightened Def Con from 7.91281e-07 +++++++++++++++to 7.92281e-07
Heightened Def Con from 7.92281e-07 +++++++++++++++to 7.93281e-07
Heightened Def Con from 7.93281e-07 ++++++++++++++to 7.94281e-07
Heightened Def Con from 7.94281e-07 ++++++++++++++to 7.95281e-07
Heightened Def Con from 7.95281e-07 ++++++++++++++to 7.96281e-07
Heightened Def Con from 7.96281e-07 ++++++++++++++to 7.97281e-07
Heightened Def Con from 7.97281e-07 ++++++++++++++to 7.98281e-07
Heightened Def Con from 7.98281e-07 ++++++++++++++to 7.99281e-07
Heightened Def Con from 7.99281e-07 ++++++++++++++to 8.00281e-07
Heightened Def Con from 8.00281e-07 ++++++++++++++to 8.01281e-07
Heightened Def Con from 8.01281e-07 ++++++++++++++to 8.02281e-07
Heightened Def Con from 8.02281e-07 ++++++++++++++to 8.03281e-07
Heightened Def Con from 8.03281e-07 ++++++++++++++to 8.04281e-07
Heightened Def Con from 8.04281e-07 ++++++++++++++to 8.05281e-07
Heightened Def Con from 8.05281e-07 ++++++++++++++to 8.06281e-07
Heightened Def Con from 8.06281e-07 ++++++++++++++to 8.07281e-07
Heightened Def Con from 8.07281e-07 ++++++++++++++to 8.08281e-07
Heightened Def Con from 8.08281e-07 ++++++++++++++to 8.09281e-07
Heightened Def Con from 8.09281e-07 ++++++++++++++to 8.10281e-07
Heightened Def Con from 8.10281e-07 ++++++++++++++to 8.11281e-07
Heightened Def Con from 8.11281e-07 ++++++++++++++to 8.12281e-07
Heightened Def Con from 8.12281e-07 ++++++++++++++to 8.13281e-07
Heightened Def Con from 8.13281e-07 ++++++++++++++to 8.14281e-07
Heightened Def Con from 8.14281e-07 ++++++++++++++to 8.15281e-07
Heightened Def Con from 8.15281e-07 ++++++++++++++to 8.16281e-07
Heightened Def Con from 8.16281e-07 ++++++++++++++to 8.17281e-07
Heightened Def Con from 8.17281e-07 ++++++++++++++to 8.18281e-07
Heightened Def Con from 8.18281e-07 ++++++++++++++to 8.19281e-07
Heightened Def Con from 8.19281e-07 ++++++++++++++to 8.20281e-07
Heightened Def Con from 8.20281e-07 ++++++++++++++to 8.21281e-07
Heightened Def Con from 8.21281e-07 ++++++++++++++to 8.22281e-07
Heightened Def Con from 8.22281e-07 ++++++++++++++to 8.23281e-07
Heightened Def Con from 8.23281e-07 ++++++++++++++to 8.24281e-07
Heightened Def Con from 8.24281e-07 ++++++++++++++to 8.25281e-07
Heightened Def Con from 8.25281e-07 ++++++++++++++to 8.26281e-07
Heightened Def Con from 8.26281e-07 ++++++++++++++to 8.27281e-07
Heightened Def Con from 8.27281e-07 ++++++++++++++to 8.28281e-07
Heightened Def Con from 8.28281e-07 ++++++++++++++to 8.29281e-07
Heightened Def Con from 8.29281e-07 ++++++++++++++to 8.30281e-07
Heightened Def Con from 8.30281e-07 ++++++++++++++to 8.31281e-07
Heightened Def Con from 8.31281e-07 ++++++++++++++to 8.32281e-07
Heightened Def Con from 8.32281e-07 ++++++++++++++to 8.33281e-07
Heightened Def Con from 8.33281e-07 ++++++++++++++to 8.34281e-07
Heightened Def Con from 8.34281e-07 ++++++++++++++to 8.35281e-07
Heightened Def Con from 8.35281e-07 ++++++++++++++to 8.36281e-07
Heightened Def Con from 8.36281e-07 ++++++++++++++to 8.37281e-07
Heightened Def Con from 8.37281e-07 ++++++++++++++to 8.38281e-07
Heightened Def Con from 8.38281e-07 ++++++++++++++to 8.39281e-07
Heightened Def Con from 8.39281e-07 ++++++++++++++to 8.40281e-07
Heightened Def Con from 8.40281e-07 ++++++++++++++to 8.41281e-07
Heightened Def Con from 8.41281e-07 ++++++++++++++to 8.42281e-07
Heightened Def Con from 8.42281e-07 +++++++++++++to 8.43281e-07
Heightened Def Con from 8.43281e-07 +++++++++++++to 8.44281e-07
Heightened Def Con from 8.44281e-07 +++++++++++++to 8.45281e-07
Heightened Def Con from 8.45281e-07 +++++++++++++to 8.46281e-07
Heightened Def Con from 8.46281e-07 +++++++++++++to 8.47281e-07
Heightened Def Con from 8.47281e-07 +++++++++++++to 8.48281e-07
Heightened Def Con from 8.48281e-07 +++++++++++++to 8.49281e-07
Heightened Def Con from 8.49281e-07 +++++++++++++to 8.50281e-07
Heightened Def Con from 8.50281e-07 +++++++++++++to 8.51281e-07
Heightened Def Con from 8.51281e-07 +++++++++++++to 8.52281e-07
Heightened Def Con from 8.52281e-07 +++++++++++++to 8.53281e-07
Heightened Def Con from 8.53281e-07 +++++++++++++to 8.54281e-07
Heightened Def Con from 8.54281e-07 +++++++++++++to 8.55281e-07
Heightened Def Con from 8.55281e-07 +++++++++++++to 8.56281e-07
Heightened Def Con from 8.56281e-07 +++++++++++++to 8.57281e-07
Heightened Def Con from 8.57281e-07 +++++++++++++to 8.58281e-07
Heightened Def Con from 8.58281e-07 +++++++++++++to 8.59281e-07
Heightened Def Con from 8.59281e-07 +++++++++++++to 8.60281e-07
Heightened Def Con from 8.60281e-07 +++++++++++++to 8.61281e-07
Heightened Def Con from 8.61281e-07 +++++++++++++to 8.62281e-07
Heightened Def Con from 8.62281e-07 +++++++++++++to 8.63281e-07
Heightened Def Con from 8.63281e-07 +++++++++++++to 8.64281e-07
Heightened Def Con from 8.64281e-07 ++++++++++++++to 8.65281e-07
Heightened Def Con from 8.65281e-07 +++++++++++++to 8.67281e-07
Heightened Def Con from 8.67281e-07 +++++++++++++to 8.69281e-07
Heightened Def Con from 8.69281e-07 ++++++++++++++to 8.71406e-07
Heightened Def Con from 8.71406e-07 +++++++++++++++++++++++to 8.73531e-07
Heightened Def Con from 8.73531e-07 +++++++++++++++++++to 8.77531e-07
Heightened Def Con from 8.77531e-07 ++++++++++++++to 8.79656e-07
Heightened Def Con from 8.79656e-07 +++++++++++++to 8.79781e-07
Heightened Def Con from 8.79781e-07 +++++++++++++to 8.81781e-07
Heightened Def Con from 8.81781e-07 ++++++++++++++to 8.82781e-07
Heightened Def Con from 8.82781e-07 +++++++++++++to 8.84781e-07
Heightened Def Con from 8.84781e-07 +++++++++++++to 8.84906e-07
Heightened Def Con from 8.84906e-07 +++++++++++++to 8.85031e-07
Heightened Def Con from 8.85031e-07 +++++++++++++to 8.87031e-07
Heightened Def Con from 8.87031e-07 +++++++++++++to 8.89031e-07
Heightened Def Con from 8.89031e-07 +++++++++++++++++++++++to 8.92156e-07
Heightened Def Con from 8.92156e-07 +++++++++++++++++++to 8.93406e-07
Heightened Def Con from 8.93406e-07 +++++++++++++++to 8.96406e-07
Heightened Def Con from 8.96406e-07 +++++++++++++++to 8.99406e-07
Heightened Def Con from 8.99406e-07 +++++++++++++++to 9.02406e-07
Heightened Def Con from 9.02406e-07 +++++++++++++++to 9.05406e-07
Heightened Def Con from 9.05406e-07 ++++++++++++++++++++++++to 9.12406e-07
Heightened Def Con from 9.12406e-07 +++++++++++++++to 9.13781e-07
Heightened Def Con from 9.13781e-07 +++++++++++++++to 9.14781e-07
Heightened Def Con from 9.14781e-07 +++++++++++++++to 9.15781e-07
Heightened Def Con from 9.15781e-07 +++++++++++++++to 9.16781e-07
Heightened Def Con from 9.16781e-07 +++++++++++++++to 9.17781e-07
Heightened Def Con from 9.17781e-07 +++++++++++++++to 9.18781e-07
Heightened Def Con from 9.18781e-07 ++++++++++++++to 9.19781e-07
Heightened Def Con from 9.19781e-07 ++++++++++++++to 9.20781e-07
Heightened Def Con from 9.20781e-07 ++++++++++++++to 9.21781e-07
Heightened Def Con from 9.21781e-07 ++++++++++++++to 9.21906e-07
Heightened Def Con from 9.21906e-07 ++++++++++++++to 9.22906e-07
Heightened Def Con from 9.22906e-07 ++++++++++++++to 9.23906e-07
Heightened Def Con from 9.23906e-07 ++++++++++++++to 9.24906e-07
Heightened Def Con from 9.24906e-07 ++++++++++++++to 9.25906e-07
Heightened Def Con from 9.25906e-07 ++++++++++++++to 9.26906e-07
Heightened Def Con from 9.26906e-07 ++++++++++++++to 9.27906e-07
Heightened Def Con from 9.27906e-07 ++++++++++++++to 9.28906e-07
Heightened Def Con from 9.28906e-07 ++++++++++++++to 9.29906e-07
Heightened Def Con from 9.29906e-07 ++++++++++++++to 9.30906e-07
Heightened Def Con from 9.30906e-07 ++++++++++++++to 9.31906e-07
Heightened Def Con from 9.31906e-07 ++++++++++++++to 9.32906e-07
Heightened Def Con from 9.32906e-07 ++++++++++++++to 9.33906e-07
Heightened Def Con from 9.33906e-07 ++++++++++++++to 9.34906e-07
Heightened Def Con from 9.34906e-07 ++++++++++++++to 9.35906e-07
Heightened Def Con from 9.35906e-07 ++++++++++++++to 9.36906e-07
Heightened Def Con from 9.36906e-07 ++++++++++++++to 9.37906e-07
Heightened Def Con from 9.37906e-07 ++++++++++++++to 9.38906e-07
Heightened Def Con from 9.38906e-07 ++++++++++++++to 9.39906e-07
Heightened Def Con from 9.39906e-07 ++++++++++++++to 9.40906e-07
Heightened Def Con from 9.40906e-07 ++++++++++++++to 9.41906e-07
Heightened Def Con from 9.41906e-07 ++++++++++++++to 9.42906e-07
Heightened Def Con from 9.42906e-07 ++++++++++++++to 9.43906e-07
Heightened Def Con from 9.43906e-07 ++++++++++++++to 9.44906e-07
Heightened Def Con from 9.44906e-07 ++++++++++++++to 9.45906e-07
Heightened Def Con from 9.45906e-07 ++++++++++++++to 9.46906e-07
Heightened Def Con from 9.46906e-07 ++++++++++++++to 9.47906e-07
Heightened Def Con from 9.47906e-07 ++++++++++++++to 9.48906e-07
Heightened Def Con from 9.48906e-07 ++++++++++++++to 9.49906e-07
Heightened Def Con from 9.49906e-07 ++++++++++++++to 9.50906e-07
Heightened Def Con from 9.50906e-07 ++++++++++++++to 9.51906e-07
Heightened Def Con from 9.51906e-07 ++++++++++++++to 9.52906e-07
Heightened Def Con from 9.52906e-07 ++++++++++++++to 9.53906e-07
Heightened Def Con from 9.53906e-07 ++++++++++++++to 9.54906e-07
Heightened Def Con from 9.54906e-07 ++++++++++++++to 9.55906e-07
Heightened Def Con from 9.55906e-07 ++++++++++++++to 9.56906e-07
Heightened Def Con from 9.56906e-07 ++++++++++++++to 9.57906e-07
Heightened Def Con from 9.57906e-07 ++++++++++++++to 9.58906e-07
Heightened Def Con from 9.58906e-07 ++++++++++++++to 9.59906e-07
Heightened Def Con from 9.59906e-07 ++++++++++++++to 9.60906e-07
Heightened Def Con from 9.60906e-07 ++++++++++++++to 9.61906e-07
Heightened Def Con from 9.61906e-07 ++++++++++++++to 9.62906e-07
Heightened Def Con from 9.62906e-07 ++++++++++++++to 9.63906e-07
Heightened Def Con from 9.63906e-07 ++++++++++++++to 9.64906e-07
Heightened Def Con from 9.64906e-07 ++++++++++++++to 9.65906e-07
Heightened Def Con from 9.65906e-07 ++++++++++++++to 9.66906e-07
Heightened Def Con from 9.66906e-07 ++++++++++++++to 9.67906e-07
Heightened Def Con from 9.67906e-07 ++++++++++++++to 9.68906e-07
Heightened Def Con from 9.68906e-07 ++++++++++++++to 9.69906e-07
Heightened Def Con from 9.69906e-07 ++++++++++++++to 9.70906e-07
Heightened Def Con from 9.70906e-07 ++++++++++++++to 9.71906e-07
Heightened Def Con from 9.71906e-07 ++++++++++++++to 9.72906e-07
Heightened Def Con from 9.72906e-07 ++++++++++++++to 9.73906e-07
Heightened Def Con from 9.73906e-07 ++++++++++++++to 9.74906e-07
Heightened Def Con from 9.74906e-07 ++++++++++++++to 9.75906e-07
Heightened Def Con from 9.75906e-07 +++++++++++++to 9.76906e-07
Heightened Def Con from 9.76906e-07 +++++++++++++to 9.77906e-07
Heightened Def Con from 9.77906e-07 +++++++++++++to 9.78906e-07
Heightened Def Con from 9.78906e-07 +++++++++++++to 9.79906e-07
Heightened Def Con from 9.79906e-07 +++++++++++++to 9.80906e-07
Heightened Def Con from 9.80906e-07 +++++++++++++to 9.81906e-07
Heightened Def Con from 9.81906e-07 +++++++++++++to 9.82906e-07
Heightened Def Con from 9.82906e-07 +++++++++++++to 9.83906e-07
Heightened Def Con from 9.83906e-07 +++++++++++++to 9.84906e-07
Heightened Def Con from 9.84906e-07 +++++++++++++to 9.85906e-07
Heightened Def Con from 9.85906e-07 +++++++++++++to 9.86906e-07
Heightened Def Con from 9.86906e-07 +++++++++++++to 9.87906e-07
Heightened Def Con from 9.87906e-07 ++++++++++++++to 9.88906e-07
Heightened Def Con from 9.88906e-07 +++++++++++++to 9.89906e-07
Heightened Def Con from 9.89906e-07 +++++++++++++to 9.90906e-07
Heightened Def Con from 9.90906e-07 +++++++++++++to 9.91906e-07
Heightened Def Con from 9.91906e-07 +++++++++++++to 9.92906e-07
Heightened Def Con from 9.92906e-07 +++++++++++++to 9.93906e-07
Heightened Def Con from 9.93906e-07 +++++++++++++to 9.94906e-07
Heightened Def Con from 9.94906e-07 ++++++++++++++to 9.95906e-07
Heightened Def Con from 9.95906e-07 +++++++++++++to 9.97906e-07
Heightened Def Con from 9.97906e-07 +++++++++++++to 9.99906e-07
Heightened Def Con from 9.99906e-07 +++++++++++++to 1.00003e-06
Heightened Def Con from 1.00003e-06 +++++++++++++to 1.00203e-06
Heightened Def Con from 1.00203e-06 +++++++++++++to 1.00403e-06
Heightened Def Con from 1.00403e-06 +++++++++++++to 1.00603e-06
Heightened Def Con from 1.00603e-06 ++++++++++++++++++++++++to 1.01403e-06
Heightened Def Con from 1.01403e-06 +++++++++++++++++to 1.01703e-06
Heightened Def Con from 1.01703e-06 +++++++++++++++to 1.02003e-06
Heightened Def Con from 1.02003e-06 +++++++++++++++to 1.02103e-06
Heightened Def Con from 1.02103e-06 +++++++++++++++to 1.02203e-06
Heightened Def Con from 1.02203e-06 +++++++++++++++++++++++to 1.02716e-06
Heightened Def Con from 1.02716e-06 ++++++++++++++++++++to 1.03216e-06
Heightened Def Con from 1.03216e-06 +++++++++++++++to 1.03616e-06
Heightened Def Con from 1.03616e-06 +++++++++++++++to 1.03816e-06
Heightened Def Con from 1.03816e-06 +++++++++++++++to 1.04016e-06
Heightened Def Con from 1.04016e-06 +++++++++++++++to 1.04316e-06
Heightened Def Con from 1.04316e-06 ++++++++++++++++to 1.04628e-06
Heightened Def Con from 1.04628e-06 ++++++++++++++++++++++++to 1.05528e-06
Heightened Def Con from 1.05528e-06 ++++++++++++++++++++++++to 1.06428e-06
Heightened Def Con from 1.06428e-06 ++++++++++++++++++++++to 1.07028e-06
Heightened Def Con from 1.07028e-06 ++++++++++++++++to 1.07141e-06
Heightened Def Con from 1.07141e-06 ++++++++++++++++to 1.07441e-06
Heightened Def Con from 1.07441e-06 ++++++++++++++++to 1.07741e-06
Heightened Def Con from 1.07741e-06 ++++++++++++++++to 1.08041e-06
Heightened Def Con from 1.08041e-06 ++++++++++++++++to 1.08341e-06
Heightened Def Con from 1.08341e-06 ++++++++++++++++to 1.08641e-06
Heightened Def Con from 1.08641e-06 ++++++++++++++++to 1.08941e-06
Heightened Def Con from 1.08941e-06 ++++++++++++++++to 1.09241e-06
Heightened Def Con from 1.09241e-06 ++++++++++++++++to 1.09541e-06
Heightened Def Con from 1.09541e-06 ++++++++++++++++to 1.09841e-06
Heightened Def Con from 1.09841e-06 ++++++++++++++++to 1.10141e-06
Heightened Def Con from 1.10141e-06 ++++++++++++++++to 1.10341e-06
Heightened Def Con from 1.10341e-06 ++++++++++++++++to 1.10541e-06
Heightened Def Con from 1.10541e-06 ++++++++++++++++to 1.10741e-06
Heightened Def Con from 1.10741e-06 ++++++++++++++++to 1.10941e-06
Heightened Def Con from 1.10941e-06 ++++++++++++++++to 1.11141e-06
Heightened Def Con from 1.11141e-06 ++++++++++++++++to 1.11341e-06
Heightened Def Con from 1.11341e-06 ++++++++++++++++to 1.11441e-06
Heightened Def Con from 1.11441e-06 ++++++++++++++++to 1.11541e-06
Heightened Def Con from 1.11541e-06 ++++++++++++++++to 1.11641e-06
Heightened Def Con from 1.11641e-06 ++++++++++++++++to 1.11841e-06
Heightened Def Con from 1.11841e-06 ++++++++++++++++to 1.12041e-06
Heightened Def Con from 1.12041e-06 ++++++++++++++++to 1.12241e-06
Heightened Def Con from 1.12241e-06 ++++++++++++++++to 1.12441e-06
Heightened Def Con from 1.12441e-06 ++++++++++++++++to 1.12641e-06
Heightened Def Con from 1.12641e-06 ++++++++++++++++to 1.12841e-06
Heightened Def Con from 1.12841e-06 ++++++++++++++++to 1.13141e-06
Heightened Def Con from 1.13141e-06 ++++++++++++++++to 1.13441e-06
Heightened Def Con from 1.13441e-06 ++++++++++++++++to 1.13741e-06
Heightened Def Con from 1.13741e-06 ++++++++++++++++to 1.14041e-06
Heightened Def Con from 1.14041e-06 ++++++++++++++++to 1.14341e-06
Heightened Def Con from 1.14341e-06 ++++++++++++++++to 1.14641e-06
Heightened Def Con from 1.14641e-06 ++++++++++++++++to 1.14941e-06
Heightened Def Con from 1.14941e-06 ++++++++++++++++to 1.15241e-06
Heightened Def Con from 1.15241e-06 ++++++++++++++++to 1.15541e-06
Heightened Def Con from 1.15541e-06 ++++++++++++++++to 1.15841e-06
Heightened Def Con from 1.15841e-06 ++++++++++++++++to 1.16141e-06
Heightened Def Con from 1.16141e-06 ++++++++++++++++to 1.16441e-06
Heightened Def Con from 1.16441e-06 ++++++++++++++++to 1.16741e-06
Heightened Def Con from 1.16741e-06 ++++++++++++++++to 1.17041e-06
Heightened Def Con from 1.17041e-06 +++++++++++++++++++++++to 1.17553e-06
Heightened Def Con from 1.17553e-06 ++++++++++++++++++++to 1.17953e-06
Heightened Def Con from 1.17953e-06 ++++++++++++++++to 1.18353e-06
Heightened Def Con from 1.18353e-06 ++++++++++++++++to 1.18553e-06
Heightened Def Con from 1.18553e-06 ++++++++++++++++++to 1.18966e-06
Heightened Def Con from 1.18966e-06 ++++++++++++++++++to 1.19366e-06
Heightened Def Con from 1.19366e-06 ++++++++++++++++to 1.19566e-06
Heightened Def Con from 1.19566e-06 +++++++++++++++to 1.19666e-06
Heightened Def Con from 1.19666e-06 +++++++++++++++to 1.19766e-06
Heightened Def Con from 1.19766e-06 +++++++++++++++to 1.19866e-06
Heightened Def Con from 1.19866e-06 +++++++++++++++to 1.19966e-06
Heightened Def Con from 1.19966e-06 +++++++++++++++to 1.20066e-06
Heightened Def Con from 1.20066e-06 +++++++++++++++to 1.20166e-06
Heightened Def Con from 1.20166e-06 +++++++++++++++to 1.20266e-06
Heightened Def Con from 1.20266e-06 +++++++++++++++to 1.20366e-06
Heightened Def Con from 1.20366e-06 +++++++++++++++to 1.20466e-06
Heightened Def Con from 1.20466e-06 +++++++++++++++to 1.20566e-06
Heightened Def Con from 1.20566e-06 +++++++++++++++to 1.20666e-06
Heightened Def Con from 1.20666e-06 +++++++++++++++to 1.20766e-06
Heightened Def Con from 1.20766e-06 +++++++++++++++to 1.20866e-06
Heightened Def Con from 1.20866e-06 +++++++++++++++to 1.20966e-06
Heightened Def Con from 1.20966e-06 +++++++++++++++to 1.21066e-06
Heightened Def Con from 1.21066e-06 +++++++++++++++to 1.21166e-06
Heightened Def Con from 1.21166e-06 +++++++++++++++to 1.21266e-06
Heightened Def Con from 1.21266e-06 +++++++++++++++to 1.21366e-06
Heightened Def Con from 1.21366e-06 +++++++++++++++to 1.21466e-06
Heightened Def Con from 1.21466e-06 +++++++++++++++to 1.21566e-06
Heightened Def Con from 1.21566e-06 +++++++++++++++to 1.21666e-06
Heightened Def Con from 1.21666e-06 +++++++++++++++to 1.21766e-06
Heightened Def Con from 1.21766e-06 +++++++++++++++to 1.21866e-06
Heightened Def Con from 1.21866e-06 +++++++++++++++to 1.21966e-06
Heightened Def Con from 1.21966e-06 +++++++++++++++to 1.22066e-06
Heightened Def Con from 1.22066e-06 +++++++++++++++to 1.22166e-06
Heightened Def Con from 1.22166e-06 +++++++++++++++to 1.22266e-06
Heightened Def Con from 1.22266e-06 +++++++++++++++to 1.22366e-06
Heightened Def Con from 1.22366e-06 +++++++++++++++to 1.22466e-06
Heightened Def Con from 1.22466e-06 +++++++++++++++to 1.22566e-06
Heightened Def Con from 1.22566e-06 +++++++++++++++to 1.22666e-06
Heightened Def Con from 1.22666e-06 +++++++++++++++to 1.22766e-06
Heightened Def Con from 1.22766e-06 +++++++++++++++to 1.22866e-06
Heightened Def Con from 1.22866e-06 +++++++++++++++to 1.22966e-06
Heightened Def Con from 1.22966e-06 +++++++++++++++to 1.23066e-06
Heightened Def Con from 1.23066e-06 +++++++++++++++to 1.23166e-06
Heightened Def Con from 1.23166e-06 +++++++++++++++to 1.23266e-06
Heightened Def Con from 1.23266e-06 +++++++++++++++to 1.23366e-06
Heightened Def Con from 1.23366e-06 +++++++++++++++to 1.23466e-06
Heightened Def Con from 1.23466e-06 +++++++++++++++to 1.23566e-06
Heightened Def Con from 1.23566e-06 +++++++++++++++to 1.23666e-06
Heightened Def Con from 1.23666e-06 +++++++++++++++to 1.23766e-06
Heightened Def Con from 1.23766e-06 +++++++++++++++to 1.23866e-06
Heightened Def Con from 1.23866e-06 +++++++++++++++to 1.23966e-06
Heightened Def Con from 1.23966e-06 +++++++++++++++to 1.24066e-06
Heightened Def Con from 1.24066e-06 +++++++++++++++to 1.24166e-06
Heightened Def Con from 1.24166e-06 +++++++++++++++to 1.24266e-06
Heightened Def Con from 1.24266e-06 +++++++++++++++to 1.24366e-06
Heightened Def Con from 1.24366e-06 +++++++++++++++to 1.24466e-06
Heightened Def Con from 1.24466e-06 +++++++++++++++to 1.24566e-06
Heightened Def Con from 1.24566e-06 +++++++++++++++to 1.24666e-06
Heightened Def Con from 1.24666e-06 +++++++++++++++to 1.24766e-06
Heightened Def Con from 1.24766e-06 +++++++++++++++to 1.24866e-06
Heightened Def Con from 1.24866e-06 +++++++++++++++to 1.24966e-06
Heightened Def Con from 1.24966e-06 +++++++++++++++to 1.25066e-06
Heightened Def Con from 1.25066e-06 +++++++++++++++to 1.25166e-06
Heightened Def Con from 1.25166e-06 +++++++++++++++to 1.25266e-06
Heightened Def Con from 1.25266e-06 +++++++++++++++to 1.25366e-06
Heightened Def Con from 1.25366e-06 +++++++++++++++to 1.25466e-06
Heightened Def Con from 1.25466e-06 +++++++++++++++to 1.25566e-06
Heightened Def Con from 1.25566e-06 +++++++++++++++to 1.25666e-06
Heightened Def Con from 1.25666e-06 +++++++++++++++to 1.25766e-06
Heightened Def Con from 1.25766e-06 +++++++++++++++to 1.25866e-06
Heightened Def Con from 1.25866e-06 +++++++++++++++to 1.25966e-06
Heightened Def Con from 1.25966e-06 +++++++++++++++to 1.26066e-06
Heightened Def Con from 1.26066e-06 +++++++++++++++to 1.26166e-06
Heightened Def Con from 1.26166e-06 +++++++++++++++to 1.26266e-06
Heightened Def Con from 1.26266e-06 +++++++++++++++to 1.26366e-06
Heightened Def Con from 1.26366e-06 +++++++++++++++to 1.26466e-06
Heightened Def Con from 1.26466e-06 +++++++++++++++to 1.26566e-06
Heightened Def Con from 1.26566e-06 +++++++++++++++to 1.26666e-06
Heightened Def Con from 1.26666e-06 +++++++++++++++to 1.26766e-06
Heightened Def Con from 1.26766e-06 +++++++++++++++to 1.26866e-06
Heightened Def Con from 1.26866e-06 +++++++++++++++to 1.26966e-06
Heightened Def Con from 1.26966e-06 +++++++++++++++to 1.27066e-06
Heightened Def Con from 1.27066e-06 +++++++++++++++to 1.27166e-06
Heightened Def Con from 1.27166e-06 +++++++++++++++to 1.27266e-06
Heightened Def Con from 1.27266e-06 +++++++++++++++to 1.27366e-06
Heightened Def Con from 1.27366e-06 +++++++++++++++to 1.27466e-06
Heightened Def Con from 1.27466e-06 +++++++++++++++to 1.27566e-06
Heightened Def Con from 1.27566e-06 +++++++++++++++to 1.27666e-06
Heightened Def Con from 1.27666e-06 +++++++++++++++to 1.27766e-06
Heightened Def Con from 1.27766e-06 +++++++++++++++to 1.27866e-06
Heightened Def Con from 1.27866e-06 +++++++++++++++to 1.27966e-06
Heightened Def Con from 1.27966e-06 +++++++++++++++to 1.28066e-06
Heightened Def Con from 1.28066e-06 +++++++++++++++to 1.28166e-06
Heightened Def Con from 1.28166e-06 +++++++++++++++to 1.28266e-06
Heightened Def Con from 1.28266e-06 +++++++++++++++to 1.28366e-06
Heightened Def Con from 1.28366e-06 +++++++++++++++to 1.28466e-06
Heightened Def Con from 1.28466e-06 +++++++++++++++to 1.28566e-06
Heightened Def Con from 1.28566e-06 +++++++++++++++to 1.28666e-06
Heightened Def Con from 1.28666e-06 +++++++++++++++to 1.28766e-06
Heightened Def Con from 1.28766e-06 +++++++++++++++to 1.28866e-06
Heightened Def Con from 1.28866e-06 +++++++++++++++to 1.28966e-06
Heightened Def Con from 1.28966e-06 +++++++++++++++to 1.29066e-06
Heightened Def Con from 1.29066e-06 +++++++++++++++to 1.29166e-06
Heightened Def Con from 1.29166e-06 +++++++++++++++to 1.29266e-06
Heightened Def Con from 1.29266e-06 +++++++++++++++to 1.29366e-06
Heightened Def Con from 1.29366e-06 +++++++++++++++to 1.29466e-06
Heightened Def Con from 1.29466e-06 +++++++++++++++to 1.29566e-06
Heightened Def Con from 1.29566e-06 +++++++++++++++to 1.29666e-06
Heightened Def Con from 1.29666e-06 +++++++++++++++to 1.29766e-06
Heightened Def Con from 1.29766e-06 +++++++++++++++to 1.29866e-06
Heightened Def Con from 1.29866e-06 +++++++++++++++to 1.29966e-06
Heightened Def Con from 1.29966e-06 +++++++++++++++to 1.30066e-06
Heightened Def Con from 1.30066e-06 +++++++++++++++to 1.30166e-06
Heightened Def Con from 1.30166e-06 ++++++++++++++to 1.30266e-06
Heightened Def Con from 1.30266e-06 ++++++++++++++to 1.30366e-06
Heightened Def Con from 1.30366e-06 ++++++++++++++to 1.30466e-06
Heightened Def Con from 1.30466e-06 ++++++++++++++to 1.30566e-06
Heightened Def Con from 1.30566e-06 ++++++++++++++to 1.30666e-06
Heightened Def Con from 1.30666e-06 ++++++++++++++to 1.30766e-06
Heightened Def Con from 1.30766e-06 ++++++++++++++to 1.30866e-06
Heightened Def Con from 1.30866e-06 ++++++++++++++to 1.30966e-06
Heightened Def Con from 1.30966e-06 ++++++++++++++to 1.31066e-06
Heightened Def Con from 1.31066e-06 ++++++++++++++to 1.31166e-06
Heightened Def Con from 1.31166e-06 ++++++++++++++to 1.31266e-06
Heightened Def Con from 1.31266e-06 ++++++++++++++to 1.31366e-06
Heightened Def Con from 1.31366e-06 ++++++++++++++to 1.31466e-06
Heightened Def Con from 1.31466e-06 ++++++++++++++to 1.31566e-06
Heightened Def Con from 1.31566e-06 ++++++++++++++to 1.31666e-06
Heightened Def Con from 1.31666e-06 ++++++++++++++to 1.31766e-06
Heightened Def Con from 1.31766e-06 ++++++++++++++to 1.31866e-06
Heightened Def Con from 1.31866e-06 ++++++++++++++to 1.31966e-06
Heightened Def Con from 1.31966e-06 ++++++++++++++to 1.32066e-06
Heightened Def Con from 1.32066e-06 ++++++++++++++to 1.32166e-06
Heightened Def Con from 1.32166e-06 ++++++++++++++to 1.32266e-06
Heightened Def Con from 1.32266e-06 ++++++++++++++to 1.32366e-06
Heightened Def Con from 1.32366e-06 ++++++++++++++to 1.32466e-06
Heightened Def Con from 1.32466e-06 ++++++++++++++to 1.32566e-06
Heightened Def Con from 1.32566e-06 ++++++++++++++to 1.32666e-06
Heightened Def Con from 1.32666e-06 ++++++++++++++to 1.32766e-06
Heightened Def Con from 1.32766e-06 ++++++++++++++to 1.32866e-06
Heightened Def Con from 1.32866e-06 ++++++++++++++to 1.32966e-06
Heightened Def Con from 1.32966e-06 ++++++++++++++to 1.33066e-06
Heightened Def Con from 1.33066e-06 ++++++++++++++to 1.33166e-06
Heightened Def Con from 1.33166e-06 ++++++++++++++to 1.33266e-06
Heightened Def Con from 1.33266e-06 ++++++++++++++to 1.33366e-06
Heightened Def Con from 1.33366e-06 ++++++++++++++to 1.33466e-06
Heightened Def Con from 1.33466e-06 ++++++++++++++to 1.33566e-06
Heightened Def Con from 1.33566e-06 ++++++++++++++to 1.33666e-06
Heightened Def Con from 1.33666e-06 ++++++++++++++to 1.33766e-06
Heightened Def Con from 1.33766e-06 ++++++++++++++to 1.33866e-06
Heightened Def Con from 1.33866e-06 ++++++++++++++to 1.33966e-06
Heightened Def Con from 1.33966e-06 ++++++++++++++to 1.34066e-06
Heightened Def Con from 1.34066e-06 ++++++++++++++to 1.34166e-06
Heightened Def Con from 1.34166e-06 ++++++++++++++to 1.34266e-06
Heightened Def Con from 1.34266e-06 ++++++++++++++to 1.34366e-06
Heightened Def Con from 1.34366e-06 ++++++++++++++to 1.34466e-06
Heightened Def Con from 1.34466e-06 ++++++++++++++to 1.34566e-06
Heightened Def Con from 1.34566e-06 ++++++++++++++to 1.34666e-06
Heightened Def Con from 1.34666e-06 ++++++++++++++to 1.34766e-06
Heightened Def Con from 1.34766e-06 ++++++++++++++to 1.34866e-06
Heightened Def Con from 1.34866e-06 ++++++++++++++to 1.34966e-06
Heightened Def Con from 1.34966e-06 ++++++++++++++to 1.35066e-06
Heightened Def Con from 1.35066e-06 ++++++++++++++to 1.35166e-06
Heightened Def Con from 1.35166e-06 ++++++++++++++to 1.35266e-06
Heightened Def Con from 1.35266e-06 ++++++++++++++to 1.35366e-06
Heightened Def Con from 1.35366e-06 ++++++++++++++to 1.35466e-06
Heightened Def Con from 1.35466e-06 ++++++++++++++to 1.35566e-06
Heightened Def Con from 1.35566e-06 ++++++++++++++to 1.35666e-06
Heightened Def Con from 1.35666e-06 ++++++++++++++to 1.35766e-06
Heightened Def Con from 1.35766e-06 ++++++++++++++to 1.35866e-06
Heightened Def Con from 1.35866e-06 ++++++++++++++to 1.35966e-06
Heightened Def Con from 1.35966e-06 ++++++++++++++to 1.36066e-06
Heightened Def Con from 1.36066e-06 ++++++++++++++to 1.36266e-06
Heightened Def Con from 1.36266e-06 +++++++++++++to 1.36378e-06
Heightened Def Con from 1.36378e-06 +++++++++++++to 1.36478e-06
Heightened Def Con from 1.36478e-06 +++++++++++++to 1.36578e-06
Heightened Def Con from 1.36578e-06 +++++++++++++to 1.36678e-06
Heightened Def Con from 1.36678e-06 +++++++++++++to 1.36778e-06
Heightened Def Con from 1.36778e-06 +++++++++++++to 1.36878e-06
Heightened Def Con from 1.36878e-06 +++++++++++++to 1.36978e-06
Heightened Def Con from 1.36978e-06 +++++++++++++to 1.37078e-06
Heightened Def Con from 1.37078e-06 +++++++++++++to 1.37178e-06
Heightened Def Con from 1.37178e-06 +++++++++++++to 1.37278e-06
Heightened Def Con from 1.37278e-06 +++++++++++++to 1.37378e-06
Heightened Def Con from 1.37378e-06 +++++++++++++to 1.37478e-06
Heightened Def Con from 1.37478e-06 +++++++++++++to 1.37578e-06
Heightened Def Con from 1.37578e-06 +++++++++++++to 1.37678e-06
Heightened Def Con from 1.37678e-06 +++++++++++++to 1.37778e-06
Heightened Def Con from 1.37778e-06 +++++++++++++to 1.37878e-06
Heightened Def Con from 1.37878e-06 ++++++++++++++to 1.37978e-06
Heightened Def Con from 1.37978e-06 +++++++++++++to 1.38178e-06
Heightened Def Con from 1.38178e-06 +++++++++++++to 1.38278e-06
Heightened Def Con from 1.38278e-06 ++++++++++++++to 1.38478e-06
Heightened Def Con from 1.38478e-06 ++++++++++++++to 1.38678e-06
Heightened Def Con from 1.38678e-06 ++++++++++++++to 1.38791e-06
Heightened Def Con from 1.38791e-06 +++++++++++++to 1.39091e-06
Heightened Def Con from 1.39091e-06 ++++++++++++to 1.39203e-06
Heightened Def Con from 1.39203e-06 +++++++++++++++++++++++to 1.39416e-06
Heightened Def Con from 1.39416e-06 +++++++++++++++++++to 1.39816e-06
Heightened Def Con from 1.39816e-06 ++++++++++++++to 1.39928e-06
Heightened Def Con from 1.39928e-06 +++++++++++++to 1.39941e-06
Heightened Def Con from 1.39941e-06 ++++++++++++++to 1.40041e-06
Heightened Def Con from 1.40041e-06 +++++++++++++++++++++++to 1.40453e-06
Heightened Def Con from 1.40453e-06 +++++++++++++++++++to 1.40853e-06
Heightened Def Con from 1.40853e-06 +++++++++++++++to 1.41153e-06
Heightened Def Con from 1.41153e-06 ++++++++++++++to 1.41366e-06
Heightened Def Con from 1.41366e-06 ++++++++++++++to 1.41466e-06
Heightened Def Con from 1.41466e-06 ++++++++++++++to 1.41566e-06
Heightened Def Con from 1.41566e-06 ++++++++++++++to 1.41866e-06
Heightened Def Con from 1.41866e-06 ++++++++++++++to 1.41878e-06
Heightened Def Con from 1.41878e-06 ++++++++++++++to 1.41991e-06
Heightened Def Con from 1.41991e-06 +++++++++++++to 1.42291e-06
Heightened Def Con from 1.42291e-06 ++++++++++++++to 1.42391e-06
Heightened Def Con from 1.42391e-06 ++++++++++++++to 1.42591e-06
Heightened Def Con from 1.42591e-06 ++++++++++++++to 1.42891e-06
Heightened Def Con from 1.42891e-06 ++++++++++++++to 1.43091e-06
Heightened Def Con from 1.43091e-06 ++++++++++++++++++++++++to 1.43791e-06
Heightened Def Con from 1.43791e-06 +++++++++++++++to 1.43928e-06
Heightened Def Con from 1.43928e-06 +++++++++++++++to 1.44028e-06
Heightened Def Con from 1.44028e-06 +++++++++++++++to 1.44128e-06
Heightened Def Con from 1.44128e-06 +++++++++++++++to 1.44228e-06
Heightened Def Con from 1.44228e-06 +++++++++++++++to 1.44328e-06
Heightened Def Con from 1.44328e-06 +++++++++++++++to 1.44428e-06
Heightened Def Con from 1.44428e-06 +++++++++++++++to 1.44528e-06
Heightened Def Con from 1.44528e-06 +++++++++++++++to 1.44628e-06
Heightened Def Con from 1.44628e-06 +++++++++++++++to 1.44728e-06
Heightened Def Con from 1.44728e-06 ++++++++++++++to 1.44828e-06
Heightened Def Con from 1.44828e-06 ++++++++++++++to 1.44928e-06
Heightened Def Con from 1.44928e-06 ++++++++++++++to 1.45028e-06
Heightened Def Con from 1.45028e-06 ++++++++++++++to 1.45128e-06
Heightened Def Con from 1.45128e-06 ++++++++++++++to 1.45228e-06
Heightened Def Con from 1.45228e-06 ++++++++++++++to 1.45328e-06
Heightened Def Con from 1.45328e-06 ++++++++++++++to 1.45428e-06
Heightened Def Con from 1.45428e-06 ++++++++++++++to 1.45528e-06
Heightened Def Con from 1.45528e-06 ++++++++++++++to 1.45628e-06
Heightened Def Con from 1.45628e-06 ++++++++++++++to 1.45728e-06
Heightened Def Con from 1.45728e-06 ++++++++++++++to 1.45828e-06
Heightened Def Con from 1.45828e-06 ++++++++++++++to 1.45928e-06
Heightened Def Con from 1.45928e-06 ++++++++++++++to 1.46028e-06
Heightened Def Con from 1.46028e-06 ++++++++++++++to 1.46128e-06
Heightened Def Con from 1.46128e-06 ++++++++++++++to 1.46228e-06
Heightened Def Con from 1.46228e-06 ++++++++++++++to 1.46328e-06
Heightened Def Con from 1.46328e-06 ++++++++++++++to 1.46428e-06
Heightened Def Con from 1.46428e-06 ++++++++++++++to 1.46528e-06
Heightened Def Con from 1.46528e-06 ++++++++++++++to 1.46628e-06
Heightened Def Con from 1.46628e-06 ++++++++++++++to 1.46728e-06
Heightened Def Con from 1.46728e-06 ++++++++++++++to 1.46828e-06
Heightened Def Con from 1.46828e-06 ++++++++++++++to 1.46928e-06
Heightened Def Con from 1.46928e-06 ++++++++++++++to 1.47028e-06
Heightened Def Con from 1.47028e-06 ++++++++++++++to 1.47128e-06
Heightened Def Con from 1.47128e-06 ++++++++++++++to 1.47228e-06
Heightened Def Con from 1.47228e-06 ++++++++++++++to 1.47328e-06
Heightened Def Con from 1.47328e-06 ++++++++++++++to 1.47428e-06
Heightened Def Con from 1.47428e-06 ++++++++++++++to 1.47528e-06
Heightened Def Con from 1.47528e-06 ++++++++++++++to 1.47628e-06
Heightened Def Con from 1.47628e-06 ++++++++++++++to 1.47728e-06
Heightened Def Con from 1.47728e-06 ++++++++++++++to 1.47828e-06
Heightened Def Con from 1.47828e-06 ++++++++++++++to 1.47928e-06
Heightened Def Con from 1.47928e-06 ++++++++++++++to 1.48028e-06
Heightened Def Con from 1.48028e-06 ++++++++++++++to 1.48128e-06
Heightened Def Con from 1.48128e-06 ++++++++++++++to 1.48228e-06
Heightened Def Con from 1.48228e-06 ++++++++++++++to 1.48328e-06
Heightened Def Con from 1.48328e-06 ++++++++++++++to 1.48428e-06
Heightened Def Con from 1.48428e-06 ++++++++++++++to 1.48528e-06
Heightened Def Con from 1.48528e-06 ++++++++++++++to 1.48628e-06
Heightened Def Con from 1.48628e-06 ++++++++++++++to 1.48728e-06
Heightened Def Con from 1.48728e-06 ++++++++++++++to 1.48828e-06
Heightened Def Con from 1.48828e-06 ++++++++++++++to 1.48928e-06
Heightened Def Con from 1.48928e-06 ++++++++++++++to 1.49028e-06
Heightened Def Con from 1.49028e-06 ++++++++++++++to 1.49128e-06
Heightened Def Con from 1.49128e-06 ++++++++++++++to 1.49228e-06
Heightened Def Con from 1.49228e-06 ++++++++++++++to 1.49328e-06
Heightened Def Con from 1.49328e-06 ++++++++++++++to 1.49428e-06
Heightened Def Con from 1.49428e-06 ++++++++++++++to 1.49528e-06
Heightened Def Con from 1.49528e-06 ++++++++++++++to 1.49628e-06
Heightened Def Con from 1.49628e-06 ++++++++++++++to 1.49728e-06
Heightened Def Con from 1.49728e-06 ++++++++++++++to 1.49828e-06
Heightened Def Con from 1.49828e-06 ++++++++++++++to 1.49928e-06
Heightened Def Con from 1.49928e-06 ++++++++++++++to 1.50028e-06
Heightened Def Con from 1.50028e-06 ++++++++++++++to 1.50128e-06
Heightened Def Con from 1.50128e-06 ++++++++++++++to 1.50228e-06
Heightened Def Con from 1.50228e-06 ++++++++++++++to 1.50328e-06
Heightened Def Con from 1.50328e-06 ++++++++++++++to 1.50428e-06
Heightened Def Con from 1.50428e-06 +++++++++++++to 1.50528e-06
Heightened Def Con from 1.50528e-06 +++++++++++++to 1.50628e-06
Heightened Def Con from 1.50628e-06 +++++++++++++to 1.50728e-06
Heightened Def Con from 1.50728e-06 +++++++++++++to 1.50828e-06
Heightened Def Con from 1.50828e-06 +++++++++++++to 1.50928e-06
Heightened Def Con from 1.50928e-06 +++++++++++++to 1.51028e-06
Heightened Def Con from 1.51028e-06 +++++++++++++to 1.51128e-06
Heightened Def Con from 1.51128e-06 +++++++++++++to 1.51228e-06
Heightened Def Con from 1.51228e-06 +++++++++++++to 1.51328e-06
Heightened Def Con from 1.51328e-06 +++++++++++++to 1.51428e-06
Heightened Def Con from 1.51428e-06 +++++++++++++to 1.51528e-06
Heightened Def Con from 1.51528e-06 +++++++++++++to 1.51628e-06
Heightened Def Con from 1.51628e-06 +++++++++++++to 1.51728e-06
Heightened Def Con from 1.51728e-06 +++++++++++++to 1.51828e-06
Heightened Def Con from 1.51828e-06 +++++++++++++to 1.51928e-06
Heightened Def Con from 1.51928e-06 +++++++++++++to 1.52028e-06
Heightened Def Con from 1.52028e-06 +++++++++++++to 1.52128e-06
Heightened Def Con from 1.52128e-06 +++++++++++++to 1.52228e-06
Heightened Def Con from 1.52228e-06 +++++++++++++to 1.52328e-06
Heightened Def Con from 1.52328e-06 +++++++++++++to 1.52428e-06
Heightened Def Con from 1.52428e-06 +++++++++++++to 1.52528e-06
Heightened Def Con from 1.52528e-06 ++++++++++++++to 1.52628e-06
Heightened Def Con from 1.52628e-06 +++++++++++++to 1.52828e-06
Heightened Def Con from 1.52828e-06 +++++++++++++to 1.53028e-06
Heightened Def Con from 1.53028e-06 ++++++++++++++to 1.53128e-06
Heightened Def Con from 1.53128e-06 +++++++++++++to 1.53241e-06
Heightened Def Con from 1.53241e-06 +++++++++++++to 1.53353e-06
Heightened Def Con from 1.53353e-06 ++++++++++++to 1.53466e-06
Heightened Def Con from 1.53466e-06 ++++++++++++to 1.53666e-06
Heightened Def Con from 1.53666e-06 +++++++++++++to 1.53766e-06
Heightened Def Con from 1.53766e-06 +++++++++++++to 1.53878e-06
Heightened Def Con from 1.53878e-06 ++++++++++++++to 1.53978e-06
Heightened Def Con from 1.53978e-06 ++++++++++++++++++++++++to 1.54678e-06
Heightened Def Con from 1.54678e-06 ++++++++++++++++to 1.54891e-06
Heightened Def Con from 1.54891e-06 +++++++++++++++to 1.55191e-06
Heightened Def Con from 1.55191e-06 +++++++++++++++to 1.55291e-06
Heightened Def Con from 1.55291e-06 +++++++++++++++to 1.55391e-06
Heightened Def Con from 1.55391e-06 +++++++++++++++to 1.55491e-06
Heightened Def Con from 1.55491e-06 +++++++++++++++to 1.55591e-06
Heightened Def Con from 1.55591e-06 ++++++++++++++to 1.55691e-06
Heightened Def Con from 1.55691e-06 ++++++++++++++to 1.55791e-06
Heightened Def Con from 1.55791e-06 ++++++++++++++to 1.55891e-06
Heightened Def Con from 1.55891e-06 ++++++++++++++to 1.55991e-06
Heightened Def Con from 1.55991e-06 ++++++++++++++to 1.56091e-06
Heightened Def Con from 1.56091e-06 ++++++++++++++to 1.56191e-06
Heightened Def Con from 1.56191e-06 ++++++++++++++to 1.56291e-06
Heightened Def Con from 1.56291e-06 ++++++++++++++to 1.56391e-06
Heightened Def Con from 1.56391e-06 ++++++++++++++to 1.56491e-06
Heightened Def Con from 1.56491e-06 ++++++++++++++to 1.56591e-06
Heightened Def Con from 1.56591e-06 ++++++++++++++to 1.56691e-06
Heightened Def Con from 1.56691e-06 ++++++++++++++to 1.56791e-06
Heightened Def Con from 1.56791e-06 ++++++++++++++to 1.56891e-06
Heightened Def Con from 1.56891e-06 ++++++++++++++to 1.56991e-06
Heightened Def Con from 1.56991e-06 ++++++++++++++to 1.57091e-06
Heightened Def Con from 1.57091e-06 ++++++++++++++to 1.57191e-06
Heightened Def Con from 1.57191e-06 ++++++++++++++to 1.57291e-06
Heightened Def Con from 1.57291e-06 ++++++++++++++to 1.57391e-06
Heightened Def Con from 1.57391e-06 ++++++++++++++to 1.57491e-06
Heightened Def Con from 1.57491e-06 ++++++++++++++to 1.57591e-06
Heightened Def Con from 1.57591e-06 ++++++++++++++to 1.57691e-06
Heightened Def Con from 1.57691e-06 ++++++++++++++to 1.57791e-06
Heightened Def Con from 1.57791e-06 ++++++++++++++to 1.57891e-06
Heightened Def Con from 1.57891e-06 ++++++++++++++to 1.57991e-06
Heightened Def Con from 1.57991e-06 ++++++++++++++to 1.58091e-06
Heightened Def Con from 1.58091e-06 ++++++++++++++to 1.58191e-06
Heightened Def Con from 1.58191e-06 ++++++++++++++to 1.58291e-06
Heightened Def Con from 1.58291e-06 ++++++++++++++to 1.58391e-06
Heightened Def Con from 1.58391e-06 ++++++++++++++to 1.58491e-06
Heightened Def Con from 1.58491e-06 ++++++++++++++to 1.58591e-06
Heightened Def Con from 1.58591e-06 ++++++++++++++to 1.58691e-06
Heightened Def Con from 1.58691e-06 ++++++++++++++to 1.58791e-06
Heightened Def Con from 1.58791e-06 ++++++++++++++to 1.58891e-06
Heightened Def Con from 1.58891e-06 ++++++++++++++to 1.58991e-06
Heightened Def Con from 1.58991e-06 ++++++++++++++to 1.59091e-06
Heightened Def Con from 1.59091e-06 ++++++++++++++to 1.59191e-06
Heightened Def Con from 1.59191e-06 ++++++++++++++to 1.59291e-06
Heightened Def Con from 1.59291e-06 ++++++++++++++to 1.59391e-06
Heightened Def Con from 1.59391e-06 ++++++++++++++to 1.59491e-06
Heightened Def Con from 1.59491e-06 ++++++++++++++to 1.59591e-06
Heightened Def Con from 1.59591e-06 ++++++++++++++to 1.59691e-06
Heightened Def Con from 1.59691e-06 ++++++++++++++to 1.59791e-06
Heightened Def Con from 1.59791e-06 ++++++++++++++to 1.59891e-06
Heightened Def Con from 1.59891e-06 ++++++++++++++to 1.59991e-06
Heightened Def Con from 1.59991e-06 ++++++++++++++to 1.60091e-06
Heightened Def Con from 1.60091e-06 ++++++++++++++to 1.60191e-06
Heightened Def Con from 1.60191e-06 ++++++++++++++to 1.60291e-06
Heightened Def Con from 1.60291e-06 ++++++++++++++to 1.60391e-06
Heightened Def Con from 1.60391e-06 ++++++++++++++to 1.60491e-06
Heightened Def Con from 1.60491e-06 ++++++++++++++to 1.60591e-06
Heightened Def Con from 1.60591e-06 ++++++++++++++to 1.60691e-06
Heightened Def Con from 1.60691e-06 ++++++++++++++to 1.60791e-06
Heightened Def Con from 1.60791e-06 ++++++++++++++to 1.60891e-06
Heightened Def Con from 1.60891e-06 ++++++++++++++to 1.60991e-06
Heightened Def Con from 1.60991e-06 ++++++++++++++to 1.61091e-06
Heightened Def Con from 1.61091e-06 ++++++++++++++to 1.61191e-06
Heightened Def Con from 1.61191e-06 ++++++++++++++to 1.61291e-06
Heightened Def Con from 1.61291e-06 ++++++++++++++to 1.61391e-06
Heightened Def Con from 1.61391e-06 ++++++++++++++to 1.61491e-06
Heightened Def Con from 1.61491e-06 ++++++++++++++to 1.61691e-06
Heightened Def Con from 1.61691e-06 ++++++++++++++to 1.61891e-06
Heightened Def Con from 1.61891e-06 +++++++++++++to 1.62003e-06
Heightened Def Con from 1.62003e-06 +++++++++++++to 1.62103e-06
Heightened Def Con from 1.62103e-06 +++++++++++++to 1.62203e-06
Heightened Def Con from 1.62203e-06 +++++++++++++to 1.62303e-06
Heightened Def Con from 1.62303e-06 +++++++++++++to 1.62403e-06
Heightened Def Con from 1.62403e-06 +++++++++++++to 1.62503e-06
Heightened Def Con from 1.62503e-06 +++++++++++++to 1.62603e-06
Heightened Def Con from 1.62603e-06 +++++++++++++to 1.62703e-06
Heightened Def Con from 1.62703e-06 +++++++++++++to 1.62803e-06
Heightened Def Con from 1.62803e-06 +++++++++++++to 1.62903e-06
Heightened Def Con from 1.62903e-06 +++++++++++++to 1.63003e-06
Heightened Def Con from 1.63003e-06 +++++++++++++to 1.63103e-06
Heightened Def Con from 1.63103e-06 +++++++++++++to 1.63203e-06
Heightened Def Con from 1.63203e-06 +++++++++++++to 1.63303e-06
Heightened Def Con from 1.63303e-06 +++++++++++++to 1.63403e-06
Heightened Def Con from 1.63403e-06 +++++++++++++to 1.63503e-06
Heightened Def Con from 1.63503e-06 +++++++++++++to 1.63703e-06
Heightened Def Con from 1.63703e-06 +++++++++++++++to 1.63803e-06
Heightened Def Con from 1.63803e-06 ++++++++++++++to 1.64103e-06
Heightened Def Con from 1.64103e-06 +++++++++++++to 1.64403e-06
Heightened Def Con from 1.64403e-06 ++++++++++++++to 1.64503e-06
Heightened Def Con from 1.64503e-06 ++++++++++++++++++++++++to 1.65103e-06
Heightened Def Con from 1.65103e-06 +++++++++++++++to 1.65241e-06
Heightened Def Con from 1.65241e-06 +++++++++++++++to 1.65341e-06
Heightened Def Con from 1.65341e-06 +++++++++++++++to 1.65441e-06
Heightened Def Con from 1.65441e-06 +++++++++++++++to 1.65541e-06
Heightened Def Con from 1.65541e-06 +++++++++++++++to 1.65641e-06
Heightened Def Con from 1.65641e-06 +++++++++++++++to 1.65741e-06
Heightened Def Con from 1.65741e-06 +++++++++++++++to 1.65841e-06
Heightened Def Con from 1.65841e-06 +++++++++++++++to 1.65941e-06
Heightened Def Con from 1.65941e-06 +++++++++++++++to 1.66041e-06
Heightened Def Con from 1.66041e-06 +++++++++++++++to 1.66141e-06
Heightened Def Con from 1.66141e-06 +++++++++++++++to 1.66241e-06
Heightened Def Con from 1.66241e-06 +++++++++++++++to 1.66341e-06
Heightened Def Con from 1.66341e-06 +++++++++++++++to 1.66441e-06
Heightened Def Con from 1.66441e-06 +++++++++++++++to 1.66541e-06
Heightened Def Con from 1.66541e-06 ++++++++++++++to 1.66641e-06
Heightened Def Con from 1.66641e-06 ++++++++++++++to 1.66741e-06
Heightened Def Con from 1.66741e-06 ++++++++++++++to 1.66841e-06
Heightened Def Con from 1.66841e-06 ++++++++++++++to 1.66941e-06
Heightened Def Con from 1.66941e-06 ++++++++++++++to 1.67041e-06
Heightened Def Con from 1.67041e-06 ++++++++++++++to 1.67141e-06
Heightened Def Con from 1.67141e-06 ++++++++++++++to 1.67241e-06
Heightened Def Con from 1.67241e-06 ++++++++++++++to 1.67341e-06
Heightened Def Con from 1.67341e-06 ++++++++++++++to 1.67441e-06
Heightened Def Con from 1.67441e-06 ++++++++++++++to 1.67541e-06
Heightened Def Con from 1.67541e-06 ++++++++++++++to 1.67641e-06
Heightened Def Con from 1.67641e-06 ++++++++++++++to 1.67741e-06
Heightened Def Con from 1.67741e-06 ++++++++++++++to 1.67841e-06
Heightened Def Con from 1.67841e-06 ++++++++++++++to 1.67941e-06
Heightened Def Con from 1.67941e-06 ++++++++++++++to 1.68041e-06
Heightened Def Con from 1.68041e-06 ++++++++++++++to 1.68141e-06
Heightened Def Con from 1.68141e-06 ++++++++++++++to 1.68241e-06
Heightened Def Con from 1.68241e-06 ++++++++++++++to 1.68341e-06
Heightened Def Con from 1.68341e-06 ++++++++++++++to 1.68441e-06
Heightened Def Con from 1.68441e-06 ++++++++++++++to 1.68541e-06
Heightened Def Con from 1.68541e-06 ++++++++++++++to 1.68641e-06
Heightened Def Con from 1.68641e-06 ++++++++++++++to 1.68741e-06
Heightened Def Con from 1.68741e-06 ++++++++++++++to 1.68841e-06
Heightened Def Con from 1.68841e-06 ++++++++++++++to 1.68941e-06
Heightened Def Con from 1.68941e-06 ++++++++++++++to 1.69041e-06
Heightened Def Con from 1.69041e-06 ++++++++++++++to 1.69141e-06
Heightened Def Con from 1.69141e-06 ++++++++++++++to 1.69241e-06
Heightened Def Con from 1.69241e-06 ++++++++++++++to 1.69341e-06
Heightened Def Con from 1.69341e-06 ++++++++++++++to 1.69441e-06
Heightened Def Con from 1.69441e-06 ++++++++++++++to 1.69541e-06
Heightened Def Con from 1.69541e-06 ++++++++++++++to 1.69641e-06
Heightened Def Con from 1.69641e-06 ++++++++++++++to 1.69741e-06
Heightened Def Con from 1.69741e-06 ++++++++++++++to 1.69841e-06
Heightened Def Con from 1.69841e-06 ++++++++++++++to 1.69941e-06
Heightened Def Con from 1.69941e-06 ++++++++++++++to 1.70041e-06
Heightened Def Con from 1.70041e-06 ++++++++++++++to 1.70141e-06
Heightened Def Con from 1.70141e-06 ++++++++++++++to 1.70241e-06
Heightened Def Con from 1.70241e-06 ++++++++++++++to 1.70341e-06
Heightened Def Con from 1.70341e-06 ++++++++++++++to 1.70441e-06
Heightened Def Con from 1.70441e-06 ++++++++++++++to 1.70541e-06
Heightened Def Con from 1.70541e-06 ++++++++++++++to 1.70641e-06
Heightened Def Con from 1.70641e-06 ++++++++++++++to 1.70741e-06
Heightened Def Con from 1.70741e-06 ++++++++++++++to 1.70841e-06
Heightened Def Con from 1.70841e-06 ++++++++++++++to 1.70941e-06
Heightened Def Con from 1.70941e-06 ++++++++++++++to 1.71041e-06
Heightened Def Con from 1.71041e-06 ++++++++++++++to 1.71141e-06
Heightened Def Con from 1.71141e-06 ++++++++++++++to 1.71241e-06
Heightened Def Con from 1.71241e-06 ++++++++++++++to 1.71341e-06
Heightened Def Con from 1.71341e-06 ++++++++++++++to 1.71441e-06
Heightened Def Con from 1.71441e-06 ++++++++++++++to 1.71541e-06
Heightened Def Con from 1.71541e-06 ++++++++++++++to 1.71641e-06
Heightened Def Con from 1.71641e-06 ++++++++++++++to 1.71741e-06
Heightened Def Con from 1.71741e-06 ++++++++++++++to 1.71841e-06
Heightened Def Con from 1.71841e-06 ++++++++++++++to 1.71941e-06
Heightened Def Con from 1.71941e-06 ++++++++++++++to 1.72041e-06
Heightened Def Con from 1.72041e-06 ++++++++++++++to 1.72141e-06
Heightened Def Con from 1.72141e-06 +++++++++++++to 1.72241e-06
Heightened Def Con from 1.72241e-06 +++++++++++++to 1.72341e-06
Heightened Def Con from 1.72341e-06 +++++++++++++to 1.72441e-06
Heightened Def Con from 1.72441e-06 +++++++++++++to 1.72541e-06
Heightened Def Con from 1.72541e-06 +++++++++++++to 1.72641e-06
Heightened Def Con from 1.72641e-06 +++++++++++++to 1.72741e-06
Heightened Def Con from 1.72741e-06 ++++++++++++++to 1.72841e-06
Heightened Def Con from 1.72841e-06 ++++++++++++++to 1.73041e-06
Heightened Def Con from 1.73041e-06 +++++++++++++to 1.73153e-06
Heightened Def Con from 1.73153e-06 +++++++++++++to 1.73253e-06
Heightened Def Con from 1.73253e-06 +++++++++++++to 1.73353e-06
Heightened Def Con from 1.73353e-06 +++++++++++++to 1.73453e-06
Heightened Def Con from 1.73453e-06 +++++++++++++to 1.73553e-06
Heightened Def Con from 1.73553e-06 +++++++++++++to 1.73653e-06
Heightened Def Con from 1.73653e-06 +++++++++++++to 1.73753e-06
Heightened Def Con from 1.73753e-06 +++++++++++++to 1.73853e-06
Heightened Def Con from 1.73853e-06 +++++++++++++to 1.73953e-06
Heightened Def Con from 1.73953e-06 +++++++++++++to 1.74053e-06
Heightened Def Con from 1.74053e-06 +++++++++++++to 1.74153e-06
Heightened Def Con from 1.74153e-06 ++++++++++++++to 1.74253e-06
Heightened Def Con from 1.74253e-06 ++++++++++++++to 1.74353e-06
Heightened Def Con from 1.74353e-06 ++++++++++++++to 1.74653e-06
Heightened Def Con from 1.74653e-06 ++++++++++++++to 1.74953e-06
Heightened Def Con from 1.74953e-06 ++++++++++++++to 1.75153e-06
Heightened Def Con from 1.75153e-06 +++++++++++++++to 1.75453e-06
Heightened Def Con from 1.75453e-06 +++++++++++++++++++++++to 1.76053e-06
Heightened Def Con from 1.76053e-06 ++++++++++++++to 1.76153e-06
Heightened Def Con from 1.76153e-06 ++++++++++++++to 1.76453e-06
Heightened Def Con from 1.76453e-06 ++++++++++++++to 1.76553e-06
Heightened Def Con from 1.76553e-06 ++++++++++++++to 1.76653e-06
Heightened Def Con from 1.76653e-06 ++++++++++++++to 1.76753e-06
Heightened Def Con from 1.76753e-06 ++++++++++++++to 1.76853e-06
Heightened Def Con from 1.76853e-06 ++++++++++++++to 1.76953e-06
Heightened Def Con from 1.76953e-06 ++++++++++++++to 1.77053e-06
Heightened Def Con from 1.77053e-06 ++++++++++++++to 1.77153e-06
[...]
Heightened Def Con from 7.63406e-06 ++++++++++++++to 7.63506e-06
Heightened Def Con from 7.63506e-06 ++++++++++++++to 7.63606e-06
Heightened Def Con from 7.63606e-06 ++++++++++++++to 7.63706e-06
Heightened Def Con from 7.63706e-06 ++++++++++++++to 7.63806e-06
Heightened Def Con from 7.63806e-06 ++++++++++++++to 7.63906e-06
Heightened Def Con from 7.63906e-06 ++++++++++++++to 7.64006e-06
Heightened Def Con from 7.64006e-06 ++++++++++++++to 7.64106e-06
Heightened Def Con from 7.64106e-06 ++++++++++++++to 7.64206e-06
Heightened Def Con from 7.64206e-06 ++++++++++++++to 7.64306e-06
Heightened Def Con from 7.64306e-06 ++++++++++++++to 7.64406e-06
Heightened Def Con from 7.64406e-06 ++++++++++++++to 7.64506e-06
Heightened Def Con from 7.64506e-06 ++++++++++++++to 7.64606e-06
Heightened Def Con from 7.64606e-06 ++++++++++++++to 7.64706e-06
Heightened Def Con from 7.64706e-06 ++++++++++++++to 7.64806e-06
Heightened Def Con from 7.64806e-06 ++++++++++++++to 7.64906e-06
Heightened Def Con from 7.64906e-06 ++++++++++++++to 7.65006e-06
Heightened Def Con from 7.65006e-06 ++++++++++++++to 7.65106e-06
Heightened Def Con from 7.65106e-06 ++++++++++++++to 7.65206e-06
Heightened Def Con from 7.65206e-06 ++++++++++++++to 7.65306e-06
Heightened Def Con from 7.65306e-06 ++++++++++++++to 7.65406e-06
Heightened Def Con from 7.65406e-06 ++++++++++++++to 7.65506e-06
Heightened Def Con from 7.65506e-06 ++++++++++++++to 7.65606e-06
Heightened Def Con from 7.65606e-06 ++++++++++++++to 7.65706e-06
Heightened Def Con from 7.65706e-06 ++++++++++++++to 7.65806e-06
Heightened Def Con from 7.65806e-06 ++++++++++++++to 7.65906e-06
Heightened Def Con from 7.65906e-06 ++++++++++++++to 7.66006e-06
Heightened Def Con from 7.66006e-06 ++++++++++++++to 7.66106e-06
Heightened Def Con from 7.66106e-06 ++++++++++++++to 7.66206e-06
Heightened Def Con from 7.66206e-06 ++++++++++++++to 7.66306e-06
Heightened Def Con from 7.66306e-06 ++++++++++++++to 7.66406e-06
Heightened Def Con from 7.66406e-06 ++++++++++++++to 7.66506e-06
Heightened Def Con from 7.66506e-06 ++++++++++++++to 7.66606e-06
Heightened Def Con from 7.66606e-06 ++++++++++++++to 7.66706e-06
Heightened Def Con from 7.66706e-06 ++++++++++++++to 7.66806e-06
Heightened Def Con from 7.66806e-06 ++++++++++++++to 7.66906e-06
Heightened Def Con from 7.66906e-06 ++++++++++++++to 7.67006e-06
Heightened Def Con from 7.67006e-06 ++++++++++++++to 7.67106e-06
Heightened Def Con from 7.67106e-06 ++++++++++++++to 7.67206e-06
Heightened Def Con from 7.67206e-06 ++++++++++++++to 7.67306e-06
Heightened Def Con from 7.67306e-06 ++++++++++++++to 7.67406e-06
Heightened Def Con from 7.67406e-06 ++++++++++++++to 7.67506e-06
Heightened Def Con from 7.67506e-06 ++++++++++++++to 7.67606e-06
Heightened Def Con from 7.67606e-06 ++++++++++++++to 7.67706e-06
Heightened Def Con from 7.67706e-06 ++++++++++++++to 7.67906e-06
Heightened Def Con from 7.67906e-06 ++++++++++++++to 7.68106e-06
Heightened Def Con from 7.68106e-06 ++++++++++++++to 7.68306e-06
Heightened Def Con from 7.68306e-06 ++++++++++++++to 7.68506e-06
Heightened Def Con from 7.68506e-06 ++++++++++++++to 7.68706e-06
Heightened Def Con from 7.68706e-06 ++++++++++++++to 7.68906e-06
Heightened Def Con from 7.68906e-06 ++++++++++++++to 7.69006e-06
Heightened Def Con from 7.69006e-06 ++++++++++++++to 7.69206e-06
Heightened Def Con from 7.69206e-06 +++++++++++++to 7.69319e-06
Heightened Def Con from 7.69319e-06 +++++++++++++to 7.69419e-06
Heightened Def Con from 7.69419e-06 +++++++++++++to 7.69519e-06
Heightened Def Con from 7.69519e-06 +++++++++++++to 7.69619e-06
Heightened Def Con from 7.69619e-06 +++++++++++++to 7.69719e-06
Heightened Def Con from 7.69719e-06 +++++++++++++to 7.69819e-06
Heightened Def Con from 7.69819e-06 +++++++++++++to 7.69919e-06
Heightened Def Con from 7.69919e-06 +++++++++++++to 7.70019e-06
Heightened Def Con from 7.70019e-06 ++++++++++++++to 7.70119e-06
Heightened Def Con from 7.70119e-06 ++++++++++++++to 7.70419e-06
Heightened Def Con from 7.70419e-06 ++++++++++++++to 7.70619e-06
Heightened Def Con from 7.70619e-06 ++++++++++++++to 7.70831e-06
Heightened Def Con from 7.70831e-06 ++++++++++++++to 7.71131e-06
Heightened Def Con from 7.71131e-06 ++++++++++++++to 7.71431e-06
Heightened Def Con from 7.71431e-06 ++++++++++++to 7.71544e-06
Heightened Def Con from 7.71544e-06 ++++++++++++++to 7.71844e-06
Heightened Def Con from 7.71844e-06 +++++++++++++++++++++++to 7.72444e-06
Heightened Def Con from 7.72444e-06 ++++++++++++++to 7.72545e-06
Heightened Def Con from 7.72545e-06 ++++++++++++++to 7.72745e-06
Heightened Def Con from 7.72745e-06 ++++++++++++++to 7.72845e-06
Heightened Def Con from 7.72845e-06 ++++++++++++++to 7.72945e-06
Heightened Def Con from 7.72945e-06 ++++++++++++++to 7.73045e-06
Heightened Def Con from 7.73045e-06 ++++++++++++++to 7.73145e-06
Heightened Def Con from 7.73145e-06 ++++++++++++++to 7.73245e-06
Heightened Def Con from 7.73245e-06 ++++++++++++++to 7.73345e-06
Heightened Def Con from 7.73345e-06 ++++++++++++++to 7.73545e-06
Heightened Def Con from 7.73545e-06 ++++++++++++++to 7.73745e-06
Heightened Def Con from 7.73745e-06 ++++++++++++++to 7.73945e-06
Heightened Def Con from 7.73945e-06 ++++++++++++++to 7.74145e-06
Heightened Def Con from 7.74145e-06 ++++++++++++++to 7.74345e-06
Heightened Def Con from 7.74345e-06 ++++++++++++++to 7.74545e-06
Heightened Def Con from 7.74545e-06 ++++++++++++++to 7.74745e-06
Heightened Def Con from 7.74745e-06 ++++++++++++++to 7.74945e-06
Heightened Def Con from 7.74945e-06 ++++++++++++++to 7.75145e-06
Heightened Def Con from 7.75145e-06 +++++++++++++to 7.75345e-06
Heightened Def Con from 7.75345e-06 ++++++++++++++to 7.75445e-06
Heightened Def Con from 7.75445e-06 ++++++++++++++to 7.75545e-06
Heightened Def Con from 7.75545e-06 ++++++++++++++++++++++to 7.75958e-06
Heightened Def Con from 7.75958e-06 +++++++++++++++++++to 7.76358e-06
Heightened Def Con from 7.76358e-06 +++++++++++++++++++++++to 7.77058e-06
Heightened Def Con from 7.77058e-06 ++++++++++++++++++++++to 7.77858e-06
Heightened Def Con from 7.77858e-06 +++++++++++++++to 7.7807e-06
Heightened Def Con from 7.7807e-06 ++++++++++++++to 7.78183e-06
Heightened Def Con from 7.78183e-06 ++++++++++++++to 7.78383e-06
Heightened Def Con from 7.78383e-06 ++++++++++++++to 7.78483e-06
Heightened Def Con from 7.78483e-06 ++++++++++++++to 7.78583e-06
Heightened Def Con from 7.78583e-06 ++++++++++++++to 7.78683e-06
Heightened Def Con from 7.78683e-06 ++++++++++++++to 7.78783e-06
Heightened Def Con from 7.78783e-06 ++++++++++++++to 7.78883e-06
Heightened Def Con from 7.78883e-06 ++++++++++++++to 7.78983e-06
Heightened Def Con from 7.78983e-06 ++++++++++++++to 7.79083e-06
Heightened Def Con from 7.79083e-06 ++++++++++++++to 7.79183e-06
Heightened Def Con from 7.79183e-06 ++++++++++++++to 7.79283e-06
Heightened Def Con from 7.79283e-06 ++++++++++++++to 7.79383e-06
Heightened Def Con from 7.79383e-06 ++++++++++++++to 7.79483e-06
Heightened Def Con from 7.79483e-06 ++++++++++++++to 7.79583e-06
Heightened Def Con from 7.79583e-06 ++++++++++++++to 7.79683e-06
Heightened Def Con from 7.79683e-06 ++++++++++++++to 7.79783e-06
Heightened Def Con from 7.79783e-06 ++++++++++++++to 7.79883e-06
Heightened Def Con from 7.79883e-06 ++++++++++++++to 7.79983e-06
Heightened Def Con from 7.79983e-06 ++++++++++++++to 7.80083e-06
Heightened Def Con from 7.80083e-06 ++++++++++++++to 7.80183e-06
Heightened Def Con from 7.80183e-06 ++++++++++++++to 7.80283e-06
Heightened Def Con from 7.80283e-06 ++++++++++++++to 7.80383e-06
Heightened Def Con from 7.80383e-06 ++++++++++++++to 7.80483e-06
Heightened Def Con from 7.80483e-06 ++++++++++++++to 7.80583e-06
Heightened Def Con from 7.80583e-06 ++++++++++++++to 7.80683e-06
Heightened Def Con from 7.80683e-06 ++++++++++++++to 7.80783e-06
Heightened Def Con from 7.80783e-06 ++++++++++++++to 7.80883e-06
Heightened Def Con from 7.80883e-06 ++++++++++++++to 7.80983e-06
Heightened Def Con from 7.80983e-06 ++++++++++++++to 7.81083e-06
Heightened Def Con from 7.81083e-06 ++++++++++++++to 7.81183e-06
Heightened Def Con from 7.81183e-06 ++++++++++++++to 7.81283e-06
Heightened Def Con from 7.81283e-06 ++++++++++++++to 7.81383e-06
Heightened Def Con from 7.81383e-06 ++++++++++++++to 7.81483e-06
Heightened Def Con from 7.81483e-06 ++++++++++++++to 7.81583e-06
Heightened Def Con from 7.81583e-06 ++++++++++++++to 7.81683e-06
Heightened Def Con from 7.81683e-06 ++++++++++++++to 7.81783e-06
Heightened Def Con from 7.81783e-06 ++++++++++++++to 7.81883e-06
Heightened Def Con from 7.81883e-06 ++++++++++++++to 7.81983e-06
Heightened Def Con from 7.81983e-06 ++++++++++++++to 7.82083e-06
Heightened Def Con from 7.82083e-06 ++++++++++++++to 7.82183e-06
Heightened Def Con from 7.82183e-06 ++++++++++++++to 7.82283e-06
Heightened Def Con from 7.82283e-06 ++++++++++++++to 7.82483e-06
Heightened Def Con from 7.82483e-06 ++++++++++++++to 7.82683e-06
Heightened Def Con from 7.82683e-06 ++++++++++++++to 7.82883e-06
Heightened Def Con from 7.82883e-06 ++++++++++++++to 7.83083e-06
Heightened Def Con from 7.83083e-06 ++++++++++++++to 7.83283e-06
Heightened Def Con from 7.83283e-06 +++++++++++++to 7.83395e-06
Heightened Def Con from 7.83395e-06 +++++++++++++to 7.83495e-06
Heightened Def Con from 7.83495e-06 +++++++++++++to 7.83595e-06
Heightened Def Con from 7.83595e-06 +++++++++++++to 7.83695e-06
Heightened Def Con from 7.83695e-06 +++++++++++++to 7.83795e-06
Heightened Def Con from 7.83795e-06 +++++++++++++to 7.83895e-06
Heightened Def Con from 7.83895e-06 +++++++++++++to 7.83995e-06
Heightened Def Con from 7.83995e-06 +++++++++++++to 7.84095e-06
Heightened Def Con from 7.84095e-06 +++++++++++++to 7.84195e-06
Heightened Def Con from 7.84195e-06 +++++++++++++to 7.84295e-06
Heightened Def Con from 7.84295e-06 +++++++++++++to 7.84308e-06
Heightened Def Con from 7.84308e-06 ++++++++++++++to 7.84408e-06
Heightened Def Con from 7.84408e-06 ++++++++++++++to 7.84708e-06
Heightened Def Con from 7.84708e-06 ++++++++++++++to 7.84908e-06
Heightened Def Con from 7.84908e-06 +++++++++++++++to 7.85208e-06
Heightened Def Con from 7.85208e-06 ++++++++++++++to 7.85508e-06
Heightened Def Con from 7.85508e-06 +++++++++++++to 7.8562e-06
Heightened Def Con from 7.8562e-06 +++++++++++++++++++++++to 7.8632e-06
Heightened Def Con from 7.8632e-06 ++++++++++++++to 7.86446e-06
Heightened Def Con from 7.86446e-06 ++++++++++++++to 7.86746e-06
Heightened Def Con from 7.86746e-06 ++++++++++++++to 7.86946e-06
Heightened Def Con from 7.86946e-06 ++++++++++++++to 7.87046e-06
Heightened Def Con from 7.87046e-06 ++++++++++++++to 7.87146e-06
Heightened Def Con from 7.87146e-06 ++++++++++++++to 7.87246e-06
Heightened Def Con from 7.87246e-06 ++++++++++++++to 7.87346e-06
Heightened Def Con from 7.87346e-06 ++++++++++++++to 7.87446e-06
Heightened Def Con from 7.87446e-06 ++++++++++++++to 7.87546e-06
Heightened Def Con from 7.87546e-06 ++++++++++++++to 7.87646e-06
Heightened Def Con from 7.87646e-06 ++++++++++++++to 7.87746e-06
Heightened Def Con from 7.87746e-06 ++++++++++++++to 7.87946e-06
Heightened Def Con from 7.87946e-06 ++++++++++++++to 7.88146e-06
Heightened Def Con from 7.88146e-06 ++++++++++++++to 7.88346e-06
Heightened Def Con from 7.88346e-06 ++++++++++++++to 7.88546e-06
Heightened Def Con from 7.88546e-06 +++++++++++++to 7.88658e-06
Heightened Def Con from 7.88658e-06 +++++++++++++to 7.88758e-06
Heightened Def Con from 7.88758e-06 +++++++++++++to 7.88858e-06
Heightened Def Con from 7.88858e-06 +++++++++++++to 7.88958e-06
Heightened Def Con from 7.88958e-06 +++++++++++++to 7.89058e-06
Heightened Def Con from 7.89058e-06 +++++++++++++to 7.89158e-06
Heightened Def Con from 7.89158e-06 +++++++++++++to 7.89258e-06
Heightened Def Con from 7.89258e-06 +++++++++++++to 7.89358e-06
Heightened Def Con from 7.89358e-06 +++++++++++++to 7.89458e-06
Heightened Def Con from 7.89458e-06 +++++++++++++to 7.89558e-06
Heightened Def Con from 7.89558e-06 +++++++++++++to 7.89658e-06
Heightened Def Con from 7.89658e-06 +++++++++++++to 7.89758e-06
Heightened Def Con from 7.89758e-06 +++++++++++++to 7.89858e-06
Heightened Def Con from 7.89858e-06 +++++++++++++to 7.89958e-06
Heightened Def Con from 7.89958e-06 ++++++++++++++to 7.90058e-06
Heightened Def Con from 7.90058e-06 ++++++++++++++to 7.90258e-06
Heightened Def Con from 7.90258e-06 ++++++++++++++to 7.90458e-06
Heightened Def Con from 7.90458e-06 +++++++++++++++to 7.90658e-06
Heightened Def Con from 7.90658e-06 ++++++++++++++to 7.90958e-06
Heightened Def Con from 7.90958e-06 ++++++++++++++to 7.91158e-06
Heightened Def Con from 7.91158e-06 +++++++++++++to 7.91458e-06
Heightened Def Con from 7.91458e-06 +++++++++++++to 7.91571e-06
Heightened Def Con from 7.91571e-06 +++++++++++++++++++++++to 7.92371e-06
Heightened Def Con from 7.92371e-06 ++++++++++++++++++to 7.92771e-06
Heightened Def Con from 7.92771e-06 ++++++++++++++to 7.93171e-06
Heightened Def Con from 7.93171e-06 ++++++++++++++to 7.93371e-06
Heightened Def Con from 7.93371e-06 ++++++++++++++to 7.93571e-06
Heightened Def Con from 7.93571e-06 ++++++++++++++to 7.93771e-06
Heightened Def Con from 7.93771e-06 ++++++++++++++to 7.93971e-06
Heightened Def Con from 7.93971e-06 +++++++++++++to 7.94083e-06
Heightened Def Con from 7.94083e-06 +++++++++++++to 7.94183e-06
Heightened Def Con from 7.94183e-06 +++++++++++++to 7.94283e-06
Heightened Def Con from 7.94283e-06 ++++++++++++++to 7.94383e-06
Heightened Def Con from 7.94383e-06 ++++++++++++++to 7.94583e-06
Heightened Def Con from 7.94583e-06 ++++++++++++++to 7.94783e-06
Heightened Def Con from 7.94783e-06 ++++++++++++++to 7.94983e-06
Heightened Def Con from 7.94983e-06 +++++++++++++to 7.95183e-06
Heightened Def Con from 7.95183e-06 +++++++++++++to 7.95283e-06
Heightened Def Con from 7.95283e-06 +++++++++++++to 7.95383e-06
Heightened Def Con from 7.95383e-06 +++++++++++++to 7.95583e-06
Heightened Def Con from 7.95583e-06 ++++++++++++++to 7.95683e-06
Heightened Def Con from 7.95683e-06 +++++++++++++to 7.95983e-06
Heightened Def Con from 7.95983e-06 ++++++++++++++++++++++to 7.96196e-06
Heightened Def Con from 7.96196e-06 +++++++++++++++++++to 7.96596e-06
Heightened Def Con from 7.96596e-06 ++++++++++++++to 7.96708e-06
Heightened Def Con from 7.96708e-06 +++++++++++++to 7.97008e-06
Heightened Def Con from 7.97008e-06 ++++++++++++++to 7.97108e-06
Heightened Def Con from 7.97108e-06 +++++++++++++++to 7.97208e-06
Heightened Def Con from 7.97208e-06 ++++++++++++++to 7.97508e-06
Heightened Def Con from 7.97508e-06 +++++++++++++to 7.97808e-06
Heightened Def Con from 7.97808e-06 ++++++++++++++to 7.97908e-06
Heightened Def Con from 7.97908e-06 +++++++++++++++++++++++to 7.98608e-06
Heightened Def Con from 7.98608e-06 +++++++++++++++++++++++to 7.99021e-06
Heightened Def Con from 7.99021e-06 +++++++++++++++++++to 7.99421e-06
Heightened Def Con from 7.99421e-06 +++++++++++++++to 7.99633e-06
Heightened Def Con from 7.99633e-06 ++++++++++++++to 7.99833e-06
Heightened Def Con from 7.99833e-06 ++++++++++++++to 7.99933e-06
Heightened Def Con from 7.99933e-06 ++++++++++++++to 8.00033e-06
Heightened Def Con from 8.00033e-06 ++++++++++++++to 8.00133e-06
Heightened Def Con from 8.00133e-06 ++++++++++++++to 8.00233e-06
Heightened Def Con from 8.00233e-06 ++++++++++++++to 8.00333e-06
Heightened Def Con from 8.00333e-06 ++++++++++++++to 8.00433e-06
Heightened Def Con from 8.00433e-06 ++++++++++++++to 8.00533e-06
Heightened Def Con from 8.00533e-06 ++++++++++++++to 8.00633e-06
Heightened Def Con from 8.00633e-06 ++++++++++++++to 8.00733e-06
Heightened Def Con from 8.00733e-06 ++++++++++++++to 8.00833e-06
Heightened Def Con from 8.00833e-06 ++++++++++++++to 8.00933e-06
Heightened Def Con from 8.00933e-06 ++++++++++++++to 8.01033e-06
Heightened Def Con from 8.01033e-06 ++++++++++++++to 8.01133e-06
Heightened Def Con from 8.01133e-06 ++++++++++++++to 8.01233e-06
Heightened Def Con from 8.01233e-06 ++++++++++++++to 8.01333e-06
Heightened Def Con from 8.01333e-06 ++++++++++++++to 8.01433e-06
Heightened Def Con from 8.01433e-06 ++++++++++++++to 8.01633e-06
Heightened Def Con from 8.01633e-06 +++++++++++++to 8.01646e-06
Heightened Def Con from 8.01646e-06 +++++++++++++to 8.01746e-06
Heightened Def Con from 8.01746e-06 +++++++++++++to 8.01846e-06
Heightened Def Con from 8.01846e-06 +++++++++++++to 8.01946e-06
Heightened Def Con from 8.01946e-06 +++++++++++++to 8.02046e-06
Heightened Def Con from 8.02046e-06 +++++++++++++to 8.02146e-06
Heightened Def Con from 8.02146e-06 +++++++++++++to 8.02246e-06
Heightened Def Con from 8.02246e-06 +++++++++++++to 8.02346e-06
Heightened Def Con from 8.02346e-06 +++++++++++++to 8.02446e-06
Heightened Def Con from 8.02446e-06 +++++++++++++to 8.02546e-06
Heightened Def Con from 8.02546e-06 +++++++++++++to 8.02646e-06
Heightened Def Con from 8.02646e-06 +++++++++++++to 8.02746e-06
Heightened Def Con from 8.02746e-06 +++++++++++++to 8.02846e-06
Heightened Def Con from 8.02846e-06 +++++++++++++to 8.02946e-06
Heightened Def Con from 8.02946e-06 +++++++++++++to 8.03046e-06
Heightened Def Con from 8.03046e-06 +++++++++++++to 8.03146e-06
Heightened Def Con from 8.03146e-06 +++++++++++++to 8.03246e-06
Heightened Def Con from 8.03246e-06 +++++++++++++to 8.03346e-06
Heightened Def Con from 8.03346e-06 +++++++++++++to 8.03446e-06
Heightened Def Con from 8.03446e-06 +++++++++++++to 8.03458e-06
Heightened Def Con from 8.03458e-06 +++++++++++++to 8.03571e-06
Heightened Def Con from 8.03571e-06 +++++++++++++to 8.03671e-06
Heightened Def Con from 8.03671e-06 ++++++++++++++to 8.03783e-06
Heightened Def Con from 8.03783e-06 ++++++++++++++to 8.03983e-06
Heightened Def Con from 8.03983e-06 ++++++++++++++to 8.04183e-06
Heightened Def Con from 8.04183e-06 +++++++++++++to 8.04483e-06
Heightened Def Con from 8.04483e-06 +++++++++++++to 8.04696e-06
Heightened Def Con from 8.04696e-06 +++++++++++++to 8.04908e-06
Heightened Def Con from 8.04908e-06 ++++++++++++++to 8.05108e-06
Heightened Def Con from 8.05108e-06 ++++++++++++++to 8.05408e-06
Heightened Def Con from 8.05408e-06 +++++++++++++++++++++++to 8.05921e-06
Heightened Def Con from 8.05921e-06 +++++++++++++++++++++++to 8.06333e-06
Heightened Def Con from 8.06333e-06 +++++++++++++++++++to 8.06733e-06
Heightened Def Con from 8.06733e-06 ++++++++++++++to 8.06846e-06
Heightened Def Con from 8.06846e-06 ++++++++++++++to 8.07046e-06
Heightened Def Con from 8.07046e-06 ++++++++++++++to 8.07146e-06
Heightened Def Con from 8.07146e-06 ++++++++++++++to 8.07246e-06
Heightened Def Con from 8.07246e-06 ++++++++++++++to 8.07346e-06
Heightened Def Con from 8.07346e-06 ++++++++++++++to 8.07446e-06
Heightened Def Con from 8.07446e-06 ++++++++++++++to 8.07546e-06
Heightened Def Con from 8.07546e-06 ++++++++++++++to 8.07646e-06
Heightened Def Con from 8.07646e-06 ++++++++++++++to 8.07746e-06
Heightened Def Con from 8.07746e-06 ++++++++++++++to 8.07846e-06
Heightened Def Con from 8.07846e-06 ++++++++++++++to 8.07946e-06
Heightened Def Con from 8.07946e-06 ++++++++++++++to 8.08046e-06
Heightened Def Con from 8.08046e-06 ++++++++++++++to 8.08146e-06
Heightened Def Con from 8.08146e-06 ++++++++++++++to 8.08246e-06
Heightened Def Con from 8.08246e-06 ++++++++++++++to 8.08346e-06
Heightened Def Con from 8.08346e-06 ++++++++++++++to 8.08446e-06
Heightened Def Con from 8.08446e-06 ++++++++++++++to 8.08546e-06
Heightened Def Con from 8.08546e-06 ++++++++++++++to 8.08646e-06
Heightened Def Con from 8.08646e-06 ++++++++++++++to 8.08846e-06
Heightened Def Con from 8.08846e-06 ++++++++++++++to 8.09046e-06
Heightened Def Con from 8.09046e-06 +++++++++++++to 8.09158e-06
Heightened Def Con from 8.09158e-06 +++++++++++++to 8.09258e-06
Heightened Def Con from 8.09258e-06 +++++++++++++to 8.09358e-06
Heightened Def Con from 8.09358e-06 +++++++++++++to 8.09458e-06
Heightened Def Con from 8.09458e-06 +++++++++++++to 8.09558e-06
Heightened Def Con from 8.09558e-06 +++++++++++++to 8.09658e-06
Heightened Def Con from 8.09658e-06 +++++++++++++to 8.09758e-06
Heightened Def Con from 8.09758e-06 +++++++++++++to 8.09858e-06
Heightened Def Con from 8.09858e-06 